data/inputs/nesta_case2736sp_mp.m
%%%%%%%%%%%%%%%%%%%%%%%%%%%%%%%%%%%%%%%%%%%%%%%%%%%%%%%%%%%%%%%%%%%%%%%%%%%
%%%%                                                                  %%%%%
%%%%      NICTA Energy System Test Case Archive (NESTA) - v0.7.0      %%%%%
%%%%              Optimal Power Flow - Typical Operation              %%%%%
%%%%                         05 - June - 2017                         %%%%%
%%%%                                                                  %%%%%
%%%%%%%%%%%%%%%%%%%%%%%%%%%%%%%%%%%%%%%%%%%%%%%%%%%%%%%%%%%%%%%%%%%%%%%%%%%
%
%   Power flow data for Polish system - summer 2004 peak.
%
%   This case represents the Polish 400, 220 and 110 kV networks during
%   summer 2004 peak conditions. Multiple centrally dispatchable
%   generators at a bus have not been aggregated. Generators that are
%   not centrally dispatchable in the Polish energy market are given a
%   cost of zero.
%
%   This data was graciously provided by, and is distributed with the
%   permission of, Roman Korab <roman.korab@polsl.pl>.
%
function mpc = nesta_case2736sp_mp
mpc.version = '2';
mpc.baseMVA = 100.0;

%% area data
%	area	refbus
mpc.areas = [
	1	 18;
];

%% bus data
%	bus_i	type	Pd	Qd	Gs	Bs	area	Vm	Va	baseKV	zone	Vmax	Vmin
mpc.bus = [
	1	 1	 0.0	 0.0	 0.0	 0.0	 1	    1.10102	    0.82005	 220.0	 1	    1.11000	    0.95000;
	2	 1	 0.0	 0.0	 0.0	 0.0	 1	    1.10601	    2.54034	 220.0	 1	    1.11000	    0.95000;
	3	 1	 0.0	 0.0	 0.0	 0.0	 1	    1.08435	  -22.58518	 220.0	 1	    1.11000	    0.95000;
	4	 1	 0.0	 0.0	 0.0	 0.0	 1	    1.09235	   -3.36383	 220.0	 1	    1.11000	    0.95000;
	5	 1	 0.0	 0.0	 0.0	 0.0	 1	    1.09238	   -3.36465	 220.0	 1	    1.11000	    0.95000;
	6	 1	 0.0	 0.0	 0.0	 0.0	 1	    1.06492	  -14.38776	 220.0	 1	    1.11000	    0.95000;
	7	 1	 0.0	 0.0	 0.0	 0.0	 1	    1.06503	  -14.37830	 220.0	 1	    1.11000	    0.95000;
	8	 1	 0.0	 0.0	 0.0	 0.0	 1	    1.02550	  -10.64624	 400.0	 1	    1.05000	    0.95000;
	9	 1	 0.0	 0.0	 0.0	 0.0	 1	    1.02550	  -10.64142	 400.0	 1	    1.05000	    0.95000;
	10	 1	 0.0	 0.0	 0.0	 0.0	 1	    1.05819	  -14.40659	 220.0	 1	    1.11000	    0.95000;
	11	 1	 0.0	 0.0	 0.0	 0.0	 1	    1.05811	  -14.41239	 220.0	 1	    1.11000	    0.95000;
	12	 1	 0.0	 0.0	 0.0	 0.0	 1	    1.05806	  -14.40751	 220.0	 1	    1.11000	    0.95000;
	13	 1	 0.0	 0.0	 0.0	 0.0	 1	    1.05803	  -14.41721	 220.0	 1	    1.11000	    0.95000;
	14	 1	 0.0	 0.0	 0.0	 0.0	 1	    1.01814	   -9.27293	 400.0	 1	    1.05000	    0.95000;
	15	 1	 0.0	 0.0	 0.0	 0.0	 1	    1.03142	  -13.36930	 400.0	 1	    1.05000	    0.95000;
	16	 1	 0.0	 0.0	 0.0	 0.0	 1	    1.03142	  -13.36930	 400.0	 1	    1.05000	    0.95000;
	17	 2	 0.0	 0.0	 0.0	 0.0	 1	    1.09271	  -19.71331	 220.0	 1	    1.11000	    0.95000;
	18	 1	 0.0	 0.0	 0.0	 0.0	 1	    1.09276	  -19.71319	 220.0	 1	    1.11000	    0.95000;
	19	 1	 0.0	 0.0	 0.0	 0.0	 1	    1.09695	   -2.34951	 220.0	 1	    1.11000	    0.95000;
	20	 1	 0.0	 0.0	 0.0	 0.0	 1	    1.09699	   -2.34659	 220.0	 1	    1.11000	    0.95000;
	21	 1	 0.0	 0.0	 0.0	 0.0	 1	    1.07736	  -15.23107	 220.0	 1	    1.11000	    0.95000;
	22	 1	 0.0	 0.0	 0.0	 0.0	 1	    1.07736	  -15.23107	 220.0	 1	    1.11000	    0.95000;
	23	 1	 0.0	 0.0	 0.0	 0.0	 1	    1.05586	  -14.41562	 220.0	 1	    1.11000	    0.95000;
	24	 1	 0.0	 0.0	 0.0	 0.0	 1	    1.09817	   -0.65080	 220.0	 1	    1.11000	    0.95000;
	25	 1	 0.0	 0.0	 0.0	 0.0	 1	    1.03137	  -11.43269	 400.0	 1	    1.05000	    0.95000;
	26	 2	 61.358	 72.054	 0.0	 0.0	 1	    1.11000	    1.15152	 220.0	 1	    1.11000	    0.95000;
	27	 2	 84.861	 122.06	 0.0	 0.0	 1	    1.11000	    2.83396	 220.0	 1	    1.11000	    0.95000;
	28	 3	 49.0	 74.0	 0.0	 0.0	 1	    1.04603	    0.00000	 400.0	 1	    1.05000	    0.95000;
	29	 2	 49.0	 74.0	 0.0	 0.0	 1	    1.04605	    0.00602	 400.0	 1	    1.05000	    0.95000;
	30	 1	 0.0	 0.0	 0.0	 0.0	 1	    1.06559	  -14.67069	 220.0	 1	    1.11000	    0.95000;
	31	 1	 0.0	 0.0	 0.0	 0.0	 1	    1.04383	   -1.40670	 400.0	 1	    1.05000	    0.95000;
	32	 1	 0.0	 0.0	 0.0	 0.0	 1	    1.05532	  -14.72431	 220.0	 1	    1.11000	    0.95000;
	33	 1	 0.0	 0.0	 0.0	 0.0	 1	    1.09933	   -5.60939	 220.0	 1	    1.11000	    0.95000;
	34	 1	 0.0	 0.0	 0.0	 0.0	 1	    1.07662	   -8.81535	 220.0	 2	    1.11000	    0.95000;
	35	 1	 0.0	 0.0	 0.0	 0.0	 1	    1.07987	   -8.38096	 220.0	 2	    1.11000	    0.95000;
	36	 1	 0.0	 0.0	 0.0	 0.0	 1	    1.08765	   -7.40717	 220.0	 2	    1.11000	    0.95000;
	37	 1	 0.0	 0.0	 0.0	 0.0	 1	    1.08764	   -7.40910	 220.0	 2	    1.11000	    0.95000;
	38	 1	 0.0	 0.0	 0.0	 0.0	 1	    1.06677	  -10.05347	 220.0	 2	    1.11000	    0.95000;
	39	 1	 0.0	 0.0	 0.0	 0.0	 1	    1.11000	   -7.06046	 220.0	 2	    1.11000	    0.95000;
	40	 1	 0.0	 0.0	 0.0	 0.0	 1	    1.10989	   -7.05998	 220.0	 2	    1.11000	    0.95000;
	41	 1	 0.0	 0.0	 0.0	 0.0	 1	    1.02380	   -6.86024	 400.0	 2	    1.05000	    0.95000;
	42	 2	 25.0	 0.0	 0.0	 0.0	 1	    1.09099	   -8.28402	 220.0	 2	    1.11000	    0.95000;
	43	 2	 26.0	 0.0	 0.0	 0.0	 1	    1.09090	   -8.26538	 220.0	 2	    1.11000	    0.95000;
	44	 2	 25.0	 0.0	 0.0	 0.0	 1	    1.02731	   -7.86530	 400.0	 2	    1.05000	    0.95000;
	45	 1	 0.0	 0.0	 0.0	 0.0	 1	    1.02726	   -7.86795	 400.0	 2	    1.05000	    0.95000;
	46	 1	 0.0	 0.0	 0.0	 0.0	 1	    1.10652	   -7.55486	 220.0	 2	    1.11000	    0.95000;
	47	 1	 0.0	 0.0	 0.0	 0.0	 1	    1.03790	  -10.19873	 400.0	 2	    1.05000	    0.95000;
	48	 1	 0.0	 0.0	 0.0	 0.0	 1	    1.03787	  -10.20452	 400.0	 2	    1.05000	    0.95000;
	49	 1	 0.0	 0.0	 0.0	 0.0	 1	    1.03402	   -8.37254	 400.0	 2	    1.05000	    0.95000;
	50	 1	 0.0	 0.0	 0.0	 0.0	 1	    1.07439	   -8.99539	 220.0	 2	    1.11000	    0.95000;
	51	 1	 0.0	 0.0	 0.0	 0.0	 1	    1.07437	   -8.99258	 220.0	 2	    1.11000	    0.95000;
	52	 1	 0.0	 0.0	 0.0	 0.0	 1	    1.03806	   -7.62060	 400.0	 2	    1.05000	    0.95000;
	53	 1	 0.0	 0.0	 0.0	 0.0	 1	    1.03808	   -7.61842	 400.0	 2	    1.05000	    0.95000;
	54	 2	 13.0	 0.0	 0.0	 0.0	 1	    1.09248	   -6.39011	 220.0	 2	    1.11000	    0.95000;
	55	 2	 13.0	 0.0	 0.0	 0.0	 1	    1.09245	   -6.39321	 220.0	 2	    1.11000	    0.95000;
	56	 2	 13.0	 0.0	 0.0	 0.0	 1	    1.04483	   -6.68468	 400.0	 2	    1.05000	    0.95000;
	57	 2	 26.0	 0.0	 0.0	 0.0	 1	    1.04480	   -6.68829	 400.0	 2	    1.05000	    0.95000;
	58	 2	 89.067	 40.0	 0.0	 0.0	 1	    1.08485	   -8.69975	 220.0	 2	    1.11000	    0.95000;
	59	 1	 0.0	 0.0	 0.0	 0.0	 1	    1.08487	   -8.69816	 220.0	 2	    1.11000	    0.95000;
	60	 1	 0.0	 0.0	 0.0	 0.0	 1	    1.10182	   -7.62235	 220.0	 2	    1.11000	    0.95000;
	61	 1	 0.0	 0.0	 0.0	 0.0	 1	    1.09244	   -8.71467	 220.0	 2	    1.11000	    0.95000;
	62	 1	 0.0	 0.0	 0.0	 0.0	 1	    1.09241	   -8.71755	 220.0	 2	    1.11000	    0.95000;
	63	 1	 0.0	 0.0	 0.0	 0.0	 1	    1.04851	   -7.76722	 400.0	 2	    1.05000	    0.95000;
	64	 1	 0.0	 0.0	 0.0	 0.0	 1	    1.04846	   -7.77879	 400.0	 2	    1.05000	    0.95000;
	65	 1	 0.0	 0.0	 0.0	 0.0	 1	    1.08105	   -8.48607	 220.0	 2	    1.11000	    0.95000;
	66	 1	 0.0	 0.0	 0.0	 0.0	 1	    1.08251	   -8.32079	 220.0	 2	    1.11000	    0.95000;
	67	 1	 0.0	 0.0	 0.0	 0.0	 1	    1.07498	   -8.27627	 220.0	 2	    1.11000	    0.95000;
	68	 1	 0.0	 0.0	 0.0	 0.0	 1	    1.10113	   -3.40948	 220.0	 3	    1.11000	    0.95000;
	69	 1	 10.327	 0.0	 0.0	 0.0	 1	    1.09618	   -6.69798	 220.0	 3	    1.11000	    0.95000;
	70	 1	 8.032	 3.714	 0.0	 0.0	 1	    1.09602	   -6.69110	 220.0	 3	    1.11000	    0.95000;
	71	 1	 0.0	 0.0	 0.0	 0.0	 1	    1.09920	   -3.66846	 220.0	 3	    1.11000	    0.95000;
	72	 1	 0.0	 0.0	 0.0	 0.0	 1	    1.09923	   -3.65647	 220.0	 3	    1.11000	    0.95000;
	73	 1	 0.0	 0.0	 0.0	 0.0	 1	    1.09608	   -3.91729	 220.0	 3	    1.11000	    0.95000;
	74	 1	 0.0	 0.0	 0.0	 0.0	 1	    1.09606	   -3.92210	 220.0	 3	    1.11000	    0.95000;
	75	 1	 0.0	 0.0	 0.0	 0.0	 1	    1.09855	   -5.22615	 220.0	 3	    1.11000	    0.95000;
	76	 1	 0.0	 0.0	 0.0	 0.0	 1	    1.09843	   -5.23317	 220.0	 3	    1.11000	    0.95000;
	77	 2	 27.0	 70.0	 0.0	 0.0	 1	    1.10210	   -2.84624	 220.0	 3	    1.11000	    0.95000;
	78	 2	 18.7	 42.0	 0.0	 0.0	 1	    1.10066	   -2.80430	 220.0	 3	    1.11000	    0.95000;
	79	 1	 4.934	 0.817	 0.0	 0.0	 1	    1.09211	   -4.12802	 220.0	 3	    1.11000	    0.95000;
	80	 1	 0.0	 0.0	 0.0	 0.0	 1	    1.09213	   -4.12696	 220.0	 3	    1.11000	    0.95000;
	81	 2	 18.0	 57.0	 0.0	 0.0	 1	    1.03261	   -3.72869	 400.0	 3	    1.05000	    0.95000;
	82	 1	 0.0	 0.0	 0.0	 0.0	 1	    1.08860	   -4.72075	 220.0	 3	    1.11000	    0.95000;
	83	 1	 0.0	 0.0	 0.0	 0.0	 1	    1.09823	   -4.41406	 220.0	 3	    1.11000	    0.95000;
	84	 1	 0.0	 0.0	 0.0	 0.0	 1	    1.09824	   -4.40905	 220.0	 3	    1.11000	    0.95000;
	85	 1	 44.864	 -6.4	 0.0	 0.0	 1	    1.10205	   -3.42279	 220.0	 3	    1.11000	    0.95000;
	86	 1	 0.0	 0.0	 0.0	 0.0	 1	    1.10203	   -3.42801	 220.0	 3	    1.11000	    0.95000;
	87	 1	 0.0	 0.0	 0.0	 0.0	 1	    1.09242	   -4.11351	 220.0	 3	    1.11000	    0.95000;
	88	 1	 0.0	 0.0	 0.0	 0.0	 1	    1.09241	   -4.10791	 220.0	 3	    1.11000	    0.95000;
	89	 1	 0.0	 0.0	 0.0	 0.0	 1	    1.10331	   -2.96883	 220.0	 3	    1.11000	    0.95000;
	90	 1	 0.0	 0.0	 0.0	 0.0	 1	    1.10331	   -2.97327	 220.0	 3	    1.11000	    0.95000;
	91	 1	 0.0	 0.0	 0.0	 0.0	 1	    1.04752	   -1.80420	 400.0	 3	    1.05000	    0.95000;
	92	 1	 0.0	 0.0	 0.0	 0.0	 1	    1.04752	   -1.80591	 400.0	 3	    1.05000	    0.95000;
	93	 1	 0.0	 0.0	 0.0	 0.0	 1	    1.09373	   -4.51856	 220.0	 3	    1.11000	    0.95000;
	94	 1	 0.0	 0.0	 0.0	 0.0	 1	    1.09376	   -4.52314	 220.0	 3	    1.11000	    0.95000;
	95	 1	 0.0	 0.0	 0.0	 0.0	 1	    1.09303	   -4.27204	 220.0	 3	    1.11000	    0.95000;
	96	 1	 0.0	 0.0	 0.0	 0.0	 1	    1.09302	   -4.27432	 220.0	 3	    1.11000	    0.95000;
	97	 2	 12.49	 3.696	 0.0	 0.0	 1	    1.09922	   -3.55600	 220.0	 3	    1.11000	    0.95000;
	98	 1	 17.327	 6.126	 0.0	 0.0	 1	    1.09922	   -3.56263	 220.0	 3	    1.11000	    0.95000;
	99	 1	 0.0	 0.0	 0.0	 0.0	 1	    1.09623	   -6.67365	 220.0	 3	    1.11000	    0.95000;
	100	 1	 0.0	 0.0	 0.0	 0.0	 1	    1.09623	   -6.67380	 220.0	 3	    1.11000	    0.95000;
	101	 1	 0.0	 0.0	 0.0	 0.0	 1	    1.09187	   -5.59929	 220.0	 3	    1.11000	    0.95000;
	102	 1	 0.0	 0.0	 0.0	 0.0	 1	    1.09183	   -5.59899	 220.0	 3	    1.11000	    0.95000;
	103	 2	 14.0	 40.0	 0.0	 0.0	 1	    1.09978	   -4.43423	 220.0	 3	    1.11000	    0.95000;
	104	 2	 0.0	 0.0	 0.0	 0.0	 1	    1.09973	   -4.46134	 220.0	 3	    1.11000	    0.95000;
	105	 2	 7.0	 18.0	 0.0	 0.0	 1	    1.09545	   -4.03747	 220.0	 3	    1.11000	    0.95000;
	106	 2	 0.0	 0.0	 0.0	 0.0	 1	    1.09539	   -4.04011	 220.0	 3	    1.11000	    0.95000;
	107	 1	 0.0	 13.892	 0.0	 0.0	 1	    1.09957	   -4.11754	 220.0	 3	    1.11000	    0.95000;
	108	 1	 73.779	 8.097	 0.0	 0.0	 1	    1.09958	   -4.12713	 220.0	 3	    1.11000	    0.95000;
	109	 1	 0.0	 0.0	 0.0	 0.0	 1	    1.09387	   -4.86290	 220.0	 3	    1.11000	    0.95000;
	110	 1	 0.0	 0.0	 0.0	 0.0	 1	    1.08727	   -4.21674	 220.0	 3	    1.11000	    0.95000;
	111	 1	 0.0	 0.0	 0.0	 0.0	 1	    1.08730	   -4.21623	 220.0	 3	    1.11000	    0.95000;
	112	 1	 0.0	 0.0	 0.0	 0.0	 1	    1.09329	   -4.05353	 220.0	 3	    1.11000	    0.95000;
	113	 1	 0.0	 0.0	 0.0	 0.0	 1	    1.09334	   -4.04443	 220.0	 3	    1.11000	    0.95000;
	114	 1	 0.0	 0.0	 0.0	 0.0	 1	    1.04152	   -4.68639	 400.0	 3	    1.05000	    0.95000;
	115	 2	 0.0	 0.0	 0.0	 0.0	 1	    1.10001	   -3.16905	 220.0	 3	    1.11000	    0.95000;
	116	 2	 8.0	 15.0	 0.0	 0.0	 1	    1.10002	   -3.16667	 220.0	 3	    1.11000	    0.95000;
	117	 2	 5.5	 10.0	 0.0	 0.0	 1	    1.09840	   -4.05160	 220.0	 3	    1.11000	    0.95000;
	118	 1	 0.0	 0.0	 0.0	 0.0	 1	    1.09842	   -4.06054	 220.0	 3	    1.11000	    0.95000;
	119	 1	 0.0	 0.0	 0.0	 0.0	 1	    1.04963	   -6.94310	 400.0	 3	    1.05000	    0.95000;
	120	 1	 0.0	 0.0	 0.0	 0.0	 1	    1.04967	   -6.93829	 400.0	 3	    1.05000	    0.95000;
	121	 1	 0.0	 0.0	 0.0	 0.0	 1	    1.04998	   -4.53534	 400.0	 3	    1.05000	    0.95000;
	122	 1	 0.0	 0.0	 0.0	 0.0	 1	    1.05000	   -4.53022	 400.0	 3	    1.05000	    0.95000;
	123	 1	 0.0	 0.0	 0.0	 0.0	 1	    1.09317	   -4.92917	 220.0	 3	    1.11000	    0.95000;
	124	 2	 11.0	 17.5	 0.0	 0.0	 1	    1.09954	   -2.97792	 220.0	 3	    1.11000	    0.95000;
	125	 2	 41.353	 61.2	 0.0	 0.0	 1	    1.09944	   -2.96051	 220.0	 3	    1.11000	    0.95000;
	126	 2	 14.0	 33.0	 0.0	 0.0	 1	    1.03646	   -4.27287	 400.0	 3	    1.05000	    0.95000;
	127	 1	 0.0	 0.0	 0.0	 0.0	 1	    1.03644	   -4.27242	 400.0	 3	    1.05000	    0.95000;
	128	 1	 0.0	 0.0	 0.0	 0.0	 1	    1.10146	   -3.53094	 220.0	 3	    1.11000	    0.95000;
	129	 1	 0.0	 0.0	 0.0	 0.0	 1	    1.10143	   -3.52876	 220.0	 3	    1.11000	    0.95000;
	130	 1	 0.0	 0.0	 0.0	 0.0	 1	    1.10194	   -3.30527	 220.0	 3	    1.11000	    0.95000;
	131	 2	 1.5	 9.0	 0.0	 0.0	 1	    1.10126	   -4.87384	 220.0	 3	    1.11000	    0.95000;
	132	 2	 0.0	 0.0	 0.0	 0.0	 1	    1.09847	   -5.23340	 220.0	 3	    1.11000	    0.95000;
	133	 2	 11.215	 8.3	 0.0	 0.0	 1	    1.11000	   -6.67436	 220.0	 4	    1.11000	    0.95000;
	134	 2	 10.333	 7.7	 0.0	 0.0	 1	    1.11000	   -6.67736	 220.0	 4	    1.11000	    0.95000;
	135	 1	 0.0	 0.0	 0.0	 0.0	 1	    1.08108	  -10.75530	 220.0	 4	    1.11000	    0.95000;
	136	 1	 0.0	 0.0	 0.0	 0.0	 1	    1.08286	   -9.89517	 220.0	 4	    1.11000	    0.95000;
	137	 1	 0.0	 0.0	 0.0	 0.0	 1	    1.00653	  -10.15572	 400.0	 4	    1.05000	    0.95000;
	138	 1	 0.0	 0.0	 0.0	 0.0	 1	    1.00655	  -10.15586	 400.0	 4	    1.05000	    0.95000;
	139	 1	 0.0	 0.0	 0.0	 0.0	 1	    1.09396	  -17.45355	 220.0	 4	    1.11000	    0.95000;
	140	 1	 0.0	 0.0	 0.0	 0.0	 1	    1.10006	  -21.81989	 220.0	 4	    1.11000	    0.95000;
	141	 1	 0.0	 0.0	 0.0	 0.0	 1	    1.10006	  -21.81989	 220.0	 4	    1.11000	    0.95000;
	142	 1	 0.0	 0.0	 0.0	 0.0	 1	    1.09953	  -19.82392	 220.0	 4	    1.11000	    0.95000;
	143	 1	 0.0	 0.0	 0.0	 0.0	 1	    1.07750	  -12.07139	 220.0	 4	    1.11000	    0.95000;
	144	 1	 0.0	 0.0	 0.0	 0.0	 1	    1.07750	  -12.07139	 220.0	 4	    1.11000	    0.95000;
	145	 2	 0.0	 0.0	 0.0	 0.0	 1	    1.10874	  -10.02842	 220.0	 4	    1.11000	    0.95000;
	146	 2	 0.0	 0.0	 0.0	 0.0	 1	    1.10871	  -10.02902	 220.0	 4	    1.11000	    0.95000;
	147	 2	 25.553	 12.9	 0.0	 0.0	 1	    1.11000	  -19.50814	 220.0	 4	    1.11000	    0.95000;
	148	 1	 0.0	 0.0	 0.0	 0.0	 1	    1.10994	  -19.50372	 220.0	 4	    1.11000	    0.95000;
	149	 2	 11.0	 12.0	 0.0	 0.0	 1	    1.03989	  -18.29012	 400.0	 4	    1.05000	    0.95000;
	150	 2	 11.922	 13.7	 0.0	 0.0	 1	    1.03988	  -18.28886	 400.0	 4	    1.05000	    0.95000;
	151	 1	 0.0	 0.0	 0.0	 0.0	 1	    1.06855	  -17.80786	 220.0	 4	    1.11000	    0.95000;
	152	 1	 0.0	 0.0	 0.0	 0.0	 1	    1.09687	  -15.52595	 220.0	 4	    1.11000	    0.95000;
	153	 1	 0.0	 0.0	 0.0	 0.0	 1	    1.09682	  -15.53040	 220.0	 4	    1.11000	    0.95000;
	154	 2	 19.475	 64.3	 0.0	 0.0	 1	    1.08653	   -7.70834	 220.0	 4	    1.11000	    0.95000;
	155	 2	 16.0	 33.0	 0.0	 0.0	 1	    1.08657	   -7.71679	 220.0	 4	    1.11000	    0.95000;
	156	 1	 0.0	 0.0	 0.0	 0.0	 1	    1.00449	   -8.17374	 400.0	 4	    1.05000	    0.95000;
	157	 2	 10.0	 25.0	 0.0	 0.0	 1	    1.00448	   -8.16794	 400.0	 4	    1.05000	    0.95000;
	158	 1	 0.0	 0.0	 0.0	 0.0	 1	    1.09906	  -21.78345	 220.0	 4	    1.11000	    0.95000;
	159	 1	 0.0	 0.0	 0.0	 0.0	 1	    1.09906	  -21.78345	 220.0	 4	    1.11000	    0.95000;
	160	 1	 0.0	 0.0	 0.0	 0.0	 1	    1.01233	  -10.22273	 400.0	 4	    1.05000	    0.95000;
	161	 1	 0.0	 0.0	 0.0	 0.0	 1	    1.01528	   -9.09191	 400.0	 4	    1.05000	    0.95000;
	162	 1	 0.0	 0.0	 0.0	 0.0	 1	    1.01526	   -9.09581	 400.0	 4	    1.05000	    0.95000;
	163	 2	 5.54	 2.93	 0.0	 0.0	 1	    1.11000	  -10.17743	 220.0	 4	    1.11000	    0.95000;
	164	 2	 18.255	 11.5	 0.0	 0.0	 1	    1.11000	  -10.18533	 220.0	 4	    1.11000	    0.95000;
	165	 1	 0.0	 0.0	 0.0	 0.0	 1	    1.11000	  -10.18533	 220.0	 4	    1.11000	    0.95000;
	166	 1	 0.0	 0.0	 0.0	 0.0	 1	    1.08890	  -21.73521	 220.0	 4	    1.11000	    0.95000;
	167	 1	 0.0	 0.0	 0.0	 0.0	 1	    1.09920	  -21.94967	 220.0	 4	    1.11000	    0.95000;
	168	 1	 0.0	 0.0	 0.0	 0.0	 1	    1.09204	  -18.67741	 220.0	 4	    1.11000	    0.95000;
	169	 1	 0.0	 0.0	 0.0	 0.0	 1	    1.09202	  -18.68542	 220.0	 4	    1.11000	    0.95000;
	170	 1	 0.0	 0.0	 0.0	 0.0	 1	    1.02697	  -19.22438	 400.0	 4	    1.05000	    0.95000;
	171	 1	 0.0	 0.0	 0.0	 0.0	 1	    1.02697	  -19.22438	 400.0	 4	    1.05000	    0.95000;
	172	 1	 0.0	 0.0	 0.0	 0.0	 1	    1.06735	  -15.13500	 220.0	 4	    1.11000	    0.95000;
	173	 1	 0.0	 0.0	 0.0	 0.0	 1	    1.06734	  -15.12868	 220.0	 4	    1.11000	    0.95000;
	174	 1	 0.0	 0.0	 0.0	 0.0	 1	    1.09003	  -15.18702	 220.0	 4	    1.11000	    0.95000;
	175	 1	 0.0	 0.0	 0.0	 0.0	 1	    1.08026	  -10.50721	 220.0	 4	    1.11000	    0.95000;
	176	 1	 0.0	 0.0	 0.0	 0.0	 1	    1.08026	  -10.49832	 220.0	 4	    1.11000	    0.95000;
	177	 1	 0.0	 0.0	 0.0	 0.0	 1	    1.08187	   -9.25461	 220.0	 4	    1.11000	    0.95000;
	178	 1	 0.0	 0.0	 0.0	 0.0	 1	    1.08187	   -9.25461	 220.0	 4	    1.11000	    0.95000;
	179	 2	 3.13	 1.5	 0.0	 0.0	 1	    1.11000	  -14.28715	 220.0	 4	    1.11000	    0.95000;
	180	 1	 0.0	 0.0	 0.0	 0.0	 1	    1.06693	  -16.08967	 220.0	 4	    1.11000	    0.95000;
	181	 1	 0.0	 0.0	 0.0	 0.0	 1	    1.07352	  -17.18491	 220.0	 5	    1.11000	    0.95000;
	182	 1	 0.0	 0.0	 0.0	 0.0	 1	    1.09084	  -20.07293	 220.0	 5	    1.11000	    0.95000;
	183	 1	 0.0	 0.0	 0.0	 0.0	 1	    1.03787	  -19.00688	 400.0	 5	    1.05000	    0.95000;
	184	 1	 0.0	 0.0	 0.0	 0.0	 1	    1.03789	  -19.00842	 400.0	 5	    1.05000	    0.95000;
	185	 1	 0.0	 0.0	 0.0	 0.0	 1	    1.03225	  -17.41797	 400.0	 5	    1.05000	    0.95000;
	186	 1	 0.0	 0.0	 0.0	 0.0	 1	    1.03227	  -17.42071	 400.0	 5	    1.05000	    0.95000;
	187	 1	 0.0	 0.0	 0.0	 0.0	 1	    1.07921	  -20.90333	 220.0	 5	    1.11000	    0.95000;
	188	 1	 0.0	 0.0	 0.0	 0.0	 1	    1.07924	  -20.90531	 220.0	 5	    1.11000	    0.95000;
	189	 1	 0.0	 0.0	 0.0	 0.0	 1	    1.07576	  -16.81449	 220.0	 5	    1.11000	    0.95000;
	190	 1	 0.0	 0.0	 0.0	 0.0	 1	    1.07572	  -16.82224	 220.0	 5	    1.11000	    0.95000;
	191	 1	 0.0	 0.0	 0.0	 0.0	 1	    1.01716	  -16.71755	 400.0	 5	    1.05000	    0.95000;
	192	 1	 0.0	 0.0	 0.0	 0.0	 1	    1.07739	  -16.50787	 220.0	 5	    1.11000	    0.95000;
	193	 1	 0.0	 0.0	 0.0	 0.0	 1	    1.07737	  -16.50185	 220.0	 5	    1.11000	    0.95000;
	194	 1	 0.0	 0.0	 0.0	 0.0	 1	    1.03288	  -18.99105	 400.0	 5	    1.05000	    0.95000;
	195	 1	 0.0	 0.0	 0.0	 0.0	 1	    1.03286	  -18.99494	 400.0	 5	    1.05000	    0.95000;
	196	 1	 0.0	 0.0	 0.0	 0.0	 1	    1.07395	  -21.35121	 220.0	 5	    1.11000	    0.95000;
	197	 1	 0.0	 0.0	 0.0	 0.0	 1	    1.07397	  -21.35225	 220.0	 5	    1.11000	    0.95000;
	198	 1	 0.0	 0.0	 0.0	 -117.0	 1	    1.02955	  -18.07033	 400.0	 5	    1.05000	    0.95000;
	199	 1	 0.0	 0.0	 0.0	 0.0	 1	    1.02960	  -18.07425	 400.0	 5	    1.05000	    0.95000;
	200	 1	 0.0	 0.0	 0.0	 0.0	 1	    1.06879	  -17.92454	 220.0	 5	    1.11000	    0.95000;
...
];

%% generator data
%	bus	Pg	Qg	Qmax	Qmin	Vg	mBase	status	Pmax	Pmin	Pc1	Pc2	Qc1min	Qc1max	Qc2min	Qc2max	ramp_agc	ramp_10	ramp_30	ramp_q	apf
mpc.gen = [
	17	 0.0	 0.0	 120.0	 -22.0	 1.09271	 241.9	 0	 210.0	 140.0	 0.0	 0.0	 0.0	 0.0	 0.0	 0.0	 0.0	 0.0	 0.0	 0.0	 0.0;
	17	 0.0	 0.0	 120.0	 -22.0	 1.09271	 233.2	 0	 200.0	 140.0	 0.0	 0.0	 0.0	 0.0	 0.0	 0.0	 0.0	 0.0	 0.0	 0.0	 0.0;
	26	 370.0	 63.356	 190.0	 -19.0	 1.11	 415.9	 1	 370.0	 290.0	 0.0	 0.0	 0.0	 0.0	 0.0	 0.0	 0.0	 0.0	 0.0	 0.0	 0.0;
	27	 360.0	 46.213	 190.0	 -19.0	 1.11	 407.1	 1	 360.0	 290.0	 0.0	 0.0	 0.0	 0.0	 0.0	 0.0	 0.0	 0.0	 0.0	 0.0	 0.0;
	27	 360.0	 46.213	 190.0	 -19.0	 1.11	 407.1	 1	 360.0	 290.0	 0.0	 0.0	 0.0	 0.0	 0.0	 0.0	 0.0	 0.0	 0.0	 0.0	 0.0;
	27	 370.0	 46.213	 190.0	 -19.0	 1.11	 415.9	 1	 370.0	 290.0	 0.0	 0.0	 0.0	 0.0	 0.0	 0.0	 0.0	 0.0	 0.0	 0.0	 0.0;
	26	 370.0	 63.356	 190.0	 -19.0	 1.11	 415.9	 1	 370.0	 290.0	 0.0	 0.0	 0.0	 0.0	 0.0	 0.0	 0.0	 0.0	 0.0	 0.0	 0.0;
	28	 370.0	 -18.988	 190.0	 -19.0	 1.04603	 415.9	 1	 370.0	 290.0	 0.0	 0.0	 0.0	 0.0	 0.0	 0.0	 0.0	 0.0	 0.0	 0.0	 0.0;
	28	 0.0	 0.0	 190.0	 -19.0	 1.04603	 415.9	 0	 370.0	 290.0	 0.0	 0.0	 0.0	 0.0	 0.0	 0.0	 0.0	 0.0	 0.0	 0.0	 0.0;
	28	 370.0	 -18.988	 190.0	 -19.0	 1.04603	 415.9	 1	 370.0	 290.0	 0.0	 0.0	 0.0	 0.0	 0.0	 0.0	 0.0	 0.0	 0.0	 0.0	 0.0;
	29	 0.0	 0.0	 190.0	 -19.0	 1.04605	 415.9	 0	 370.0	 290.0	 0.0	 0.0	 0.0	 0.0	 0.0	 0.0	 0.0	 0.0	 0.0	 0.0	 0.0;
	29	 370.0	 -4.094	 190.0	 -19.0	 1.04605	 415.9	 1	 370.0	 290.0	 0.0	 0.0	 0.0	 0.0	 0.0	 0.0	 0.0	 0.0	 0.0	 0.0	 0.0;
	29	 370.0	 -4.094	 190.0	 -19.0	 1.04605	 415.9	 1	 370.0	 290.0	 0.0	 0.0	 0.0	 0.0	 0.0	 0.0	 0.0	 0.0	 0.0	 0.0	 0.0;
	42	 130.0	 -34.0	 135.0	 -34.0	 1.09099	 253.9	 1	 215.0	 130.0	 0.0	 0.0	 0.0	 0.0	 0.0	 0.0	 0.0	 0.0	 0.0	 0.0	 0.0;
	42	 0.0	 0.0	 130.0	 -34.0	 1.09099	 242.7	 0	 205.0	 135.0	 0.0	 0.0	 0.0	 0.0	 0.0	 0.0	 0.0	 0.0	 0.0	 0.0	 0.0;
	42	 110.0	 -34.0	 145.0	 -34.0	 1.09099	 267.7	 1	 225.0	 110.0	 0.0	 0.0	 0.0	 0.0	 0.0	 0.0	 0.0	 0.0	 0.0	 0.0	 0.0;
	43	 120.0	 -34.0	 145.0	 -34.0	 1.0909	 267.7	 1	 225.0	 120.0	 0.0	 0.0	 0.0	 0.0	 0.0	 0.0	 0.0	 0.0	 0.0	 0.0	 0.0;
	43	 130.0	 -34.0	 145.0	 -34.0	 1.0909	 267.7	 1	 225.0	 130.0	 0.0	 0.0	 0.0	 0.0	 0.0	 0.0	 0.0	 0.0	 0.0	 0.0	 0.0;
	43	 0.0	 0.0	 130.0	 -34.0	 1.0909	 242.7	 0	 205.0	 135.0	 0.0	 0.0	 0.0	 0.0	 0.0	 0.0	 0.0	 0.0	 0.0	 0.0	 0.0;
	44	 420.872	 -47.0	 363.0	 -47.0	 1.02731	 646.5	 1	 535.0	 255.0	 0.0	 0.0	 0.0	 0.0	 0.0	 0.0	 0.0	 0.0	 0.0	 0.0	 0.0;
	44	 0.0	 0.0	 348.0	 -100.0	 1.02731	 659.3	 0	 560.0	 250.0	 0.0	 0.0	 0.0	 0.0	 0.0	 0.0	 0.0	 0.0	 0.0	 0.0	 0.0;
	54	 129.0	 -1.0	 104.0	 -1.0	 1.09248	 247.9	 1	 225.0	 129.0	 0.0	 0.0	 0.0	 0.0	 0.0	 0.0	 0.0	 0.0	 0.0	 0.0	 0.0;
	55	 129.0	 -16.0	 130.0	 -16.0	 1.09245	 259.9	 1	 225.0	 129.0	 0.0	 0.0	 0.0	 0.0	 0.0	 0.0	 0.0	 0.0	 0.0	 0.0	 0.0;
	54	 0.0	 0.0	 130.0	 -16.0	 1.09248	 259.9	 0	 225.0	 129.0	 0.0	 0.0	 0.0	 0.0	 0.0	 0.0	 0.0	 0.0	 0.0	 0.0	 0.0;
	56	 129.0	 -16.0	 130.0	 -16.0	 1.04483	 259.9	 1	 225.0	 129.0	 0.0	 0.0	 0.0	 0.0	 0.0	 0.0	 0.0	 0.0	 0.0	 0.0	 0.0;
	57	 129.0	 -16.0	 130.0	 -16.0	 1.0448	 259.9	 1	 225.0	 129.0	 0.0	 0.0	 0.0	 0.0	 0.0	 0.0	 0.0	 0.0	 0.0	 0.0	 0.0;
	57	 0.0	 0.0	 104.0	 -1.0	 1.0448	 247.9	 0	 225.0	 129.0	 0.0	 0.0	 0.0	 0.0	 0.0	 0.0	 0.0	 0.0	 0.0	 0.0	 0.0;
	57	 129.0	 -16.0	 130.0	 -16.0	 1.0448	 259.9	 1	 225.0	 129.0	 0.0	 0.0	 0.0	 0.0	 0.0	 0.0	 0.0	 0.0	 0.0	 0.0	 0.0;
	58	 48.1	 0.0	 30.0	 0.0	 1.08485	 66.5	 1	 48.1	 48.1	 0.0	 0.0	 0.0	 0.0	 0.0	 0.0	 0.0	 0.0	 0.0	 0.0	 0.0;
	77	 225.0	 57.134	 123.0	 -15.0	 1.1021	 256.4	 1	 225.0	 140.0	 0.0	 0.0	 0.0	 0.0	 0.0	 0.0	 0.0	 0.0	 0.0	 0.0	 0.0;
	77	 225.0	 57.134	 123.0	 -15.0	 1.1021	 256.4	 1	 225.0	 140.0	 0.0	 0.0	 0.0	 0.0	 0.0	 0.0	 0.0	 0.0	 0.0	 0.0	 0.0;
	78	 0.0	 0.0	 123.0	 -15.0	 1.10066	 252.0	 0	 220.0	 140.0	 0.0	 0.0	 0.0	 0.0	 0.0	 0.0	 0.0	 0.0	 0.0	 0.0	 0.0;
	78	 225.0	 1.395	 123.0	 -15.0	 1.10066	 256.4	 1	 225.0	 140.0	 0.0	 0.0	 0.0	 0.0	 0.0	 0.0	 0.0	 0.0	 0.0	 0.0	 0.0;
	78	 225.0	 1.395	 123.0	 -15.0	 1.10066	 256.4	 1	 225.0	 140.0	 0.0	 0.0	 0.0	 0.0	 0.0	 0.0	 0.0	 0.0	 0.0	 0.0	 0.0;
	81	 380.0	 -31.0	 232.0	 -31.0	 1.03261	 445.2	 1	 380.0	 220.0	 0.0	 0.0	 0.0	 0.0	 0.0	 0.0	 0.0	 0.0	 0.0	 0.0	 0.0;
	81	 0.0	 0.0	 228.0	 -30.0	 1.03261	 434.6	 0	 370.0	 220.0	 0.0	 0.0	 0.0	 0.0	 0.0	 0.0	 0.0	 0.0	 0.0	 0.0	 0.0;
	97	 9.0	 0.0	 1.0	 0.0	 1.09922	 12.0	 1	 9.0	 9.0	 0.0	 0.0	 0.0	 0.0	 0.0	 0.0	 0.0	 0.0	 0.0	 0.0	 0.0;
	97	 6.0	 0.0	 1.0	 0.0	 1.09922	 6.1	 1	 6.0	 6.0	 0.0	 0.0	 0.0	 0.0	 0.0	 0.0	 0.0	 0.0	 0.0	 0.0	 0.0;
	103	 225.0	 110.944	 123.0	 -15.0	 1.09978	 256.4	 1	 225.0	 134.0	 0.0	 0.0	 0.0	 0.0	 0.0	 0.0	 0.0	 0.0	 0.0	 0.0	 0.0;
	104	 0.0	 0.0	 123.0	 -15.0	 1.09973	 256.4	 0	 225.0	 134.0	 0.0	 0.0	 0.0	 0.0	 0.0	 0.0	 0.0	 0.0	 0.0	 0.0	 0.0;
	105	 120.0	 45.2	 80.0	 -2.0	 1.09545	 144.2	 1	 120.0	 79.0	 0.0	 0.0	 0.0	 0.0	 0.0	 0.0	 0.0	 0.0	 0.0	 0.0	 0.0;
	106	 0.0	 0.0	 80.0	 -2.0	 1.09539	 144.2	 0	 120.0	 79.0	 0.0	 0.0	 0.0	 0.0	 0.0	 0.0	 0.0	 0.0	 0.0	 0.0	 0.0;
	115	 0.0	 0.0	 90.0	 -20.0	 1.10001	 150.0	 0	 120.0	 90.0	 0.0	 0.0	 0.0	 0.0	 0.0	 0.0	 0.0	 0.0	 0.0	 0.0	 0.0;
	116	 120.0	 -2.0	 82.0	 -2.0	 1.10002	 145.3	 1	 120.0	 70.0	 0.0	 0.0	 0.0	 0.0	 0.0	 0.0	 0.0	 0.0	 0.0	 0.0	 0.0;
	117	 110.0	 0.0	 40.0	 0.0	 1.0984	 117.0	 1	 110.0	 80.0	 0.0	 0.0	 0.0	 0.0	 0.0	 0.0	 0.0	 0.0	 0.0	 0.0	 0.0;
	124	 215.0	 -34.998	 135.0	 -35.0	 1.09954	 253.9	 1	 215.0	 160.0	 0.0	 0.0	 0.0	 0.0	 0.0	 0.0	 0.0	 0.0	 0.0	 0.0	 0.0;
	125	 225.0	 20.527	 140.0	 -35.0	 1.09944	 265.0	 1	 225.0	 140.0	 0.0	 0.0	 0.0	 0.0	 0.0	 0.0	 0.0	 0.0	 0.0	 0.0	 0.0;
	125	 215.0	 19.625	 135.0	 -35.0	 1.09944	 253.9	 1	 215.0	 160.0	 0.0	 0.0	 0.0	 0.0	 0.0	 0.0	 0.0	 0.0	 0.0	 0.0	 0.0;
	126	 225.0	 -40.0	 140.0	 -40.0	 1.03646	 265.0	 1	 225.0	 140.0	 0.0	 0.0	 0.0	 0.0	 0.0	 0.0	 0.0	 0.0	 0.0	 0.0	 0.0;
	126	 0.0	 0.0	 137.0	 -40.0	 1.03646	 259.2	 0	 220.0	 160.0	 0.0	 0.0	 0.0	 0.0	 0.0	 0.0	 0.0	 0.0	 0.0	 0.0	 0.0;
	131	 125.0	 40.0	 40.0	 -38.0	 1.10126	 131.2	 1	 125.0	 0.0	 0.0	 0.0	 0.0	 0.0	 0.0	 0.0	 0.0	 0.0	 0.0	 0.0	 0.0;
	131	 0.0	 0.0	 40.0	 -38.0	 1.10126	 131.2	 0	 125.0	 0.0	 0.0	 0.0	 0.0	 0.0	 0.0	 0.0	 0.0	 0.0	 0.0	 0.0	 0.0;
	132	 0.0	 0.0	 40.0	 -38.0	 1.09847	 131.2	 0	 125.0	 0.0	 0.0	 0.0	 0.0	 0.0	 0.0	 0.0	 0.0	 0.0	 0.0	 0.0	 0.0;
	132	 0.0	 0.0	 40.0	 -38.0	 1.09847	 131.2	 0	 125.0	 0.0	 0.0	 0.0	 0.0	 0.0	 0.0	 0.0	 0.0	 0.0	 0.0	 0.0	 0.0;
	133	 0.0	 0.0	 90.0	 0.0	 1.11	 150.0	 0	 120.0	 100.0	 0.0	 0.0	 0.0	 0.0	 0.0	 0.0	 0.0	 0.0	 0.0	 0.0	 0.0;
	133	 120.0	 11.73	 90.0	 0.0	 1.11	 150.0	 1	 120.0	 100.0	 0.0	 0.0	 0.0	 0.0	 0.0	 0.0	 0.0	 0.0	 0.0	 0.0	 0.0;
	134	 120.0	 36.579	 90.0	 0.0	 1.11	 150.0	 1	 120.0	 100.0	 0.0	 0.0	 0.0	 0.0	 0.0	 0.0	 0.0	 0.0	 0.0	 0.0	 0.0;
	145	 0.0	 0.0	 12.0	 0.0	 1.10874	 51.4	 0	 50.0	 30.0	 0.0	 0.0	 0.0	 0.0	 0.0	 0.0	 0.0	 0.0	 0.0	 0.0	 0.0;
	145	 0.0	 0.0	 12.0	 0.0	 1.10874	 51.4	 0	 50.0	 30.0	 0.0	 0.0	 0.0	 0.0	 0.0	 0.0	 0.0	 0.0	 0.0	 0.0	 0.0;
	146	 0.0	 0.0	 90.0	 0.0	 1.10871	 150.0	 0	 120.0	 90.0	 0.0	 0.0	 0.0	 0.0	 0.0	 0.0	 0.0	 0.0	 0.0	 0.0	 0.0;
	147	 0.0	 0.0	 149.0	 -48.0	 1.11	 267.4	 0	 222.0	 90.0	 0.0	 0.0	 0.0	 0.0	 0.0	 0.0	 0.0	 0.0	 0.0	 0.0	 0.0;
	147	 0.0	 0.0	 149.0	 -48.0	 1.11	 253.4	 0	 205.0	 135.0	 0.0	 0.0	 0.0	 0.0	 0.0	 0.0	 0.0	 0.0	 0.0	 0.0	 0.0;
	147	 0.0	 0.0	 149.0	 -48.0	 1.11	 253.4	 0	 205.0	 135.0	 0.0	 0.0	 0.0	 0.0	 0.0	 0.0	 0.0	 0.0	 0.0	 0.0	 0.0;
	147	 90.0	 95.575	 149.0	 -48.0	 1.11	 267.4	 1	 222.0	 90.0	 0.0	 0.0	 0.0	 0.0	 0.0	 0.0	 0.0	 0.0	 0.0	 0.0	 0.0;
	149	 90.0	 -23.0	 123.0	 -23.0	 1.03989	 253.8	 1	 222.0	 90.0	 0.0	 0.0	 0.0	 0.0	 0.0	 0.0	 0.0	 0.0	 0.0	 0.0	 0.0;
	150	 90.0	 -48.0	 149.0	 -48.0	 1.03988	 267.4	 1	 222.0	 90.0	 0.0	 0.0	 0.0	 0.0	 0.0	 0.0	 0.0	 0.0	 0.0	 0.0	 0.0;
	150	 0.0	 0.0	 123.0	 -23.0	 1.03988	 253.8	 0	 222.0	 90.0	 0.0	 0.0	 0.0	 0.0	 0.0	 0.0	 0.0	 0.0	 0.0	 0.0	 0.0;
	154	 235.0	 -53.0	 149.0	 -53.0	 1.08653	 278.3	 1	 235.0	 94.0	 0.0	 0.0	 0.0	 0.0	 0.0	 0.0	 0.0	 0.0	 0.0	 0.0	 0.0;
	154	 0.0	 0.0	 149.0	 -53.0	 1.08653	 278.3	 0	 235.0	 94.0	 0.0	 0.0	 0.0	 0.0	 0.0	 0.0	 0.0	 0.0	 0.0	 0.0	 0.0;
	154	 261.0	 0.0	 120.0	 0.0	 1.08653	 287.3	 1	 261.0	 104.0	 0.0	 0.0	 0.0	 0.0	 0.0	 0.0	 0.0	 0.0	 0.0	 0.0	 0.0;
	154	 0.0	 0.0	 132.0	 -40.0	 1.08653	 292.5	 0	 261.0	 104.0	 0.0	 0.0	 0.0	 0.0	 0.0	 0.0	 0.0	 0.0	 0.0	 0.0	 0.0;
	155	 0.0	 0.0	 120.0	 0.0	 1.08657	 287.3	 0	 261.0	 104.0	 0.0	 0.0	 0.0	 0.0	 0.0	 0.0	 0.0	 0.0	 0.0	 0.0	 0.0;
	155	 205.0	 -22.0	 117.0	 -22.0	 1.08657	 236.0	 1	 205.0	 130.0	 0.0	 0.0	 0.0	 0.0	 0.0	 0.0	 0.0	 0.0	 0.0	 0.0	 0.0;
	155	 206.0	 -20.0	 109.0	 -20.0	 1.08657	 233.1	 1	 206.0	 120.0	 0.0	 0.0	 0.0	 0.0	 0.0	 0.0	 0.0	 0.0	 0.0	 0.0	 0.0;
	155	 0.0	 0.0	 109.0	 -20.0	 1.08657	 233.1	 0	 206.0	 120.0	 0.0	 0.0	 0.0	 0.0	 0.0	 0.0	 0.0	 0.0	 0.0	 0.0	 0.0;
	157	 206.0	 29.697	 109.0	 -20.0	 1.00448	 233.1	 1	 206.0	 120.0	 0.0	 0.0	 0.0	 0.0	 0.0	 0.0	 0.0	 0.0	 0.0	 0.0	 0.0;
	163	 0.0	 0.0	 104.0	 -23.0	 1.11	 225.4	 0	 200.0	 150.0	 0.0	 0.0	 0.0	 0.0	 0.0	 0.0	 0.0	 0.0	 0.0	 0.0	 0.0;
	163	 200.0	 76.625	 104.0	 -23.0	 1.11	 225.4	 1	 200.0	 150.0	 0.0	 0.0	 0.0	 0.0	 0.0	 0.0	 0.0	 0.0	 0.0	 0.0	 0.0;
	164	 200.0	 59.877	 104.0	 -23.0	 1.11	 225.4	 1	 200.0	 150.0	 0.0	 0.0	 0.0	 0.0	 0.0	 0.0	 0.0	 0.0	 0.0	 0.0	 0.0;
	164	 200.0	 59.877	 104.0	 -23.0	 1.11	 225.4	 1	 200.0	 150.0	 0.0	 0.0	 0.0	 0.0	 0.0	 0.0	 0.0	 0.0	 0.0	 0.0	 0.0;
	179	 170.0	 66.502	 110.0	 0.0	 1.11	 219.5	 1	 170.0	 170.0	 0.0	 0.0	 0.0	 0.0	 0.0	 0.0	 0.0	 0.0	 0.0	 0.0	 0.0;
	204	 179.0	 -17.841	 110.0	 -60.0	 1.03466	 210.1	 1	 179.0	 0.0	 0.0	 0.0	 0.0	 0.0	 0.0	 0.0	 0.0	 0.0	 0.0	 0.0	 0.0;
	204	 179.0	 -17.841	 110.0	 -60.0	 1.03466	 210.1	 1	 179.0	 0.0	 0.0	 0.0	 0.0	 0.0	 0.0	 0.0	 0.0	 0.0	 0.0	 0.0	 0.0;
	204	 179.0	 -17.841	 110.0	 -60.0	 1.03466	 210.1	 1	 179.0	 0.0	 0.0	 0.0	 0.0	 0.0	 0.0	 0.0	 0.0	 0.0	 0.0	 0.0	 0.0;
	205	 179.0	 33.766	 110.0	 -60.0	 1.03469	 210.1	 1	 179.0	 0.0	 0.0	 0.0	 0.0	 0.0	 0.0	 0.0	 0.0	 0.0	 0.0	 0.0	 0.0;
	214	 35.0	 6.032	 20.0	 0.0	 1.11197	 58.5	 1	 35.0	 35.0	 0.0	 0.0	 0.0	 0.0	 0.0	 0.0	 0.0	 0.0	 0.0	 0.0	 0.0;
	214	 0.0	 0.0	 20.0	 0.0	 1.11197	 53.9	 0	 0.0	 0.0	 0.0	 0.0	 0.0	 0.0	 0.0	 0.0	 0.0	 0.0	 0.0	 0.0	 0.0;
	214	 0.0	 0.0	 20.0	 0.0	 1.11197	 53.9	 0	 0.0	 0.0	 0.0	 0.0	 0.0	 0.0	 0.0	 0.0	 0.0	 0.0	 0.0	 0.0	 0.0;
	214	 10.0	 6.032	 20.0	 0.0	 1.11197	 30.5	 1	 10.0	 10.0	 0.0	 0.0	 0.0	 0.0	 0.0	 0.0	 0.0	 0.0	 0.0	 0.0	 0.0;
	220	 1.55	 0.348	 1.0	 0.0	 1.09899	 2.3	 1	 1.55	 1.55	 0.0	 0.0	 0.0	 0.0	 0.0	 0.0	 0.0	 0.0	 0.0	 0.0	 0.0;
	221	 1.55	 1.0	 1.0	 0.0	 1.09435	 2.3	 1	 1.55	 1.55	 0.0	 0.0	 0.0	 0.0	 0.0	 0.0	 0.0	 0.0	 0.0	 0.0	 0.0;
	239	 7.0	 6.0	 6.0	 0.0	 1.08361	 9.8	 1	 7.0	 7.0	 0.0	 0.0	 0.0	 0.0	 0.0	 0.0	 0.0	 0.0	 0.0	 0.0	 0.0;
	246	 370.0	 62.215	 190.0	 -19.0	 1.07903	 415.9	 1	 370.0	 290.0	 0.0	 0.0	 0.0	 0.0	 0.0	 0.0	 0.0	 0.0	 0.0	 0.0	 0.0;
	309	 0.0	 0.0	 7.0	 0.0	 1.10945	 27.9	 0	 0.0	 0.0	 0.0	 0.0	 0.0	 0.0	 0.0	 0.0	 0.0	 0.0	 0.0	 0.0	 0.0;
	309	 0.0	 0.0	 7.0	 0.0	 1.10945	 27.9	 0	 0.0	 0.0	 0.0	 0.0	 0.0	 0.0	 0.0	 0.0	 0.0	 0.0	 0.0	 0.0	 0.0;
	309	 11.0	 7.0	 7.0	 4.0	 1.10945	 30.8	 1	 11.0	 11.0	 0.0	 0.0	 0.0	 0.0	 0.0	 0.0	 0.0	 0.0	 0.0	 0.0	 0.0;
	309	 0.0	 0.0	 7.0	 0.0	 1.10945	 27.9	 0	 0.0	 0.0	 0.0	 0.0	 0.0	 0.0	 0.0	 0.0	 0.0	 0.0	 0.0	 0.0	 0.0;
	309	 0.0	 0.0	 6.0	 0.0	 1.10945	 27.7	 0	 0.0	 0.0	 0.0	 0.0	 0.0	 0.0	 0.0	 0.0	 0.0	 0.0	 0.0	 0.0	 0.0;
	309	 0.0	 0.0	 7.0	 0.0	 1.10945	 27.9	 0	 0.0	 0.0	 0.0	 0.0	 0.0	 0.0	 0.0	 0.0	 0.0	 0.0	 0.0	 0.0	 0.0;
	309	 0.0	 0.0	 7.0	 0.0	 1.10945	 27.9	 0	 0.0	 0.0	 0.0	 0.0	 0.0	 0.0	 0.0	 0.0	 0.0	 0.0	 0.0	 0.0	 0.0;
	310	 15.0	 15.0	 15.0	 0.0	 1.11209	 36.7	 1	 15.0	 15.0	 0.0	 0.0	 0.0	 0.0	 0.0	 0.0	 0.0	 0.0	 0.0	 0.0	 0.0;
	310	 0.0	 0.0	 15.0	 0.0	 1.11209	 57.0	 0	 0.0	 0.0	 0.0	 0.0	 0.0	 0.0	 0.0	 0.0	 0.0	 0.0	 0.0	 0.0	 0.0;
	311	 15.0	 15.0	 15.0	 0.0	 1.09717	 36.7	 1	 15.0	 15.0	 0.0	 0.0	 0.0	 0.0	 0.0	 0.0	 0.0	 0.0	 0.0	 0.0	 0.0;
	311	 0.0	 0.0	 15.0	 0.0	 1.09717	 57.0	 0	 0.0	 0.0	 0.0	 0.0	 0.0	 0.0	 0.0	 0.0	 0.0	 0.0	 0.0	 0.0	 0.0;
	313	 30.0	 20.0	 20.0	 0.0	 1.11555	 53.9	 1	 30.0	 30.0	 0.0	 0.0	 0.0	 0.0	 0.0	 0.0	 0.0	 0.0	 0.0	 0.0	 0.0;
	313	 0.0	 0.0	 20.0	 0.0	 1.11555	 53.9	 0	 0.0	 0.0	 0.0	 0.0	 0.0	 0.0	 0.0	 0.0	 0.0	 0.0	 0.0	 0.0	 0.0;
	314	 0.0	 0.0	 40.0	 0.0	 1.10646	 107.7	 0	 0.0	 0.0	 0.0	 0.0	 0.0	 0.0	 0.0	 0.0	 0.0	 0.0	 0.0	 0.0	 0.0;
	322	 2.5	 3.0	 3.0	 0.0	 1.11402	 4.1	 1	 2.5	 2.5	 0.0	 0.0	 0.0	 0.0	 0.0	 0.0	 0.0	 0.0	 0.0	 0.0	 0.0;
	365	 43.25	 12.0	 12.0	 0.0	 1.1119	 47.8	 1	 43.25	 43.25	 0.0	 0.0	 0.0	 0.0	 0.0	 0.0	 0.0	 0.0	 0.0	 0.0	 0.0;
	366	 43.25	 12.0	 12.0	 0.0	 1.09197	 47.8	 1	 43.25	 43.25	 0.0	 0.0	 0.0	 0.0	 0.0	 0.0	 0.0	 0.0	 0.0	 0.0	 0.0;
	367	 43.25	 11.995	 12.0	 0.0	 1.11973	 47.8	 1	 43.25	 43.25	 0.0	 0.0	 0.0	 0.0	 0.0	 0.0	 0.0	 0.0	 0.0	 0.0	 0.0;
	368	 43.25	 12.0	 12.0	 0.0	 1.11073	 47.8	 1	 43.25	 43.25	 0.0	 0.0	 0.0	 0.0	 0.0	 0.0	 0.0	 0.0	 0.0	 0.0	 0.0;
	385	 140.0	 40.344	 138.0	 -47.0	 1.10663	 251.3	 1	 210.0	 140.0	 0.0	 0.0	 0.0	 0.0	 0.0	 0.0	 0.0	 0.0	 0.0	 0.0	 0.0;
	385	 0.0	 0.0	 10.0	 0.0	 1.10663	 26.9	 0	 25.0	 12.0	 0.0	 0.0	 0.0	 0.0	 0.0	 0.0	 0.0	 0.0	 0.0	 0.0	 0.0;
	386	 10.0	 6.479	 10.0	 0.0	 1.10174	 19.7	 1	 17.0	 10.0	 0.0	 0.0	 0.0	 0.0	 0.0	 0.0	 0.0	 0.0	 0.0	 0.0	 0.0;
	443	 1.5	 2.0	 2.0	 0.0	 1.08084	 3.6	 1	 1.5	 1.5	 0.0	 0.0	 0.0	 0.0	 0.0	 0.0	 0.0	 0.0	 0.0	 0.0	 0.0;
	452	 5.21	 2.0	 2.0	 0.0	 1.09287	 6.1	 1	 5.21	 5.21	 0.0	 0.0	 0.0	 0.0	 0.0	 0.0	 0.0	 0.0	 0.0	 0.0	 0.0;
	452	 0.0	 0.0	 2.0	 0.0	 1.09287	 6.1	 0	 0.0	 0.0	 0.0	 0.0	 0.0	 0.0	 0.0	 0.0	 0.0	 0.0	 0.0	 0.0	 0.0;
	485	 1.4	 0.7	 0.7	 0.0	 1.07327	 1.7	 1	 1.4	 1.4	 0.0	 0.0	 0.0	 0.0	 0.0	 0.0	 0.0	 0.0	 0.0	 0.0	 0.0;
	536	 40.0	 14.0	 14.0	 0.0	 1.08437	 53.9	 1	 40.0	 40.0	 0.0	 0.0	 0.0	 0.0	 0.0	 0.0	 0.0	 0.0	 0.0	 0.0	 0.0;
	536	 0.0	 0.0	 14.0	 0.0	 1.08437	 34.9	 0	 0.0	 0.0	 0.0	 0.0	 0.0	 0.0	 0.0	 0.0	 0.0	 0.0	 0.0	 0.0	 0.0;
	536	 0.0	 0.0	 14.0	 0.0	 1.08437	 34.0	 0	 0.0	 0.0	 0.0	 0.0	 0.0	 0.0	 0.0	 0.0	 0.0	 0.0	 0.0	 0.0	 0.0;
	536	 0.0	 0.0	 14.0	 0.0	 1.08437	 105.9	 0	 0.0	 0.0	 0.0	 0.0	 0.0	 0.0	 0.0	 0.0	 0.0	 0.0	 0.0	 0.0	 0.0;
	536	 0.0	 0.0	 14.0	 0.0	 1.08437	 105.9	 0	 0.0	 0.0	 0.0	 0.0	 0.0	 0.0	 0.0	 0.0	 0.0	 0.0	 0.0	 0.0	 0.0;
	537	 25.0	 17.5	 17.5	 0.0	 1.08257	 36.5	 1	 25.0	 25.0	 0.0	 0.0	 0.0	 0.0	 0.0	 0.0	 0.0	 0.0	 0.0	 0.0	 0.0;
	537	 25.0	 17.5	 17.5	 0.0	 1.08257	 35.6	 1	 25.0	 25.0	 0.0	 0.0	 0.0	 0.0	 0.0	 0.0	 0.0	 0.0	 0.0	 0.0	 0.0;
	537	 0.0	 0.0	 17.5	 0.0	 1.08257	 126.2	 0	 0.0	 0.0	 0.0	 0.0	 0.0	 0.0	 0.0	 0.0	 0.0	 0.0	 0.0	 0.0	 0.0;
	537	 0.0	 0.0	 17.5	 0.0	 1.08257	 106.4	 0	 0.0	 0.0	 0.0	 0.0	 0.0	 0.0	 0.0	 0.0	 0.0	 0.0	 0.0	 0.0	 0.0;
	551	 1.4	 0.7	 0.7	 0.0	 1.07685	 1.7	 1	 1.4	 1.4	 0.0	 0.0	 0.0	 0.0	 0.0	 0.0	 0.0	 0.0	 0.0	 0.0	 0.0;
	559	 30.0	 5.0	 5.0	 0.0	 1.08178	 34.4	 1	 30.0	 30.0	 0.0	 0.0	 0.0	 0.0	 0.0	 0.0	 0.0	 0.0	 0.0	 0.0	 0.0;
	559	 0.0	 0.0	 5.0	 0.0	 1.08178	 28.4	 0	 0.0	 0.0	 0.0	 0.0	 0.0	 0.0	 0.0	 0.0	 0.0	 0.0	 0.0	 0.0	 0.0;
	559	 0.0	 0.0	 5.0	 0.0	 1.08178	 26.5	 0	 0.0	 0.0	 0.0	 0.0	 0.0	 0.0	 0.0	 0.0	 0.0	 0.0	 0.0	 0.0	 0.0;
	559	 0.0	 0.0	 5.0	 0.0	 1.08178	 30.4	 0	 0.0	 0.0	 0.0	 0.0	 0.0	 0.0	 0.0	 0.0	 0.0	 0.0	 0.0	 0.0	 0.0;
	559	 0.0	 0.0	 5.0	 0.0	 1.08178	 34.4	 0	 0.0	 0.0	 0.0	 0.0	 0.0	 0.0	 0.0	 0.0	 0.0	 0.0	 0.0	 0.0	 0.0;
	560	 30.0	 5.0	 5.0	 0.0	 1.08066	 34.4	 1	 30.0	 30.0	 0.0	 0.0	 0.0	 0.0	 0.0	 0.0	 0.0	 0.0	 0.0	 0.0	 0.0;
	560	 0.0	 0.0	 5.0	 0.0	 1.08066	 34.4	 0	 0.0	 0.0	 0.0	 0.0	 0.0	 0.0	 0.0	 0.0	 0.0	 0.0	 0.0	 0.0	 0.0;
	560	 0.0	 0.0	 5.0	 0.0	 1.08066	 26.5	 0	 0.0	 0.0	 0.0	 0.0	 0.0	 0.0	 0.0	 0.0	 0.0	 0.0	 0.0	 0.0	 0.0;
	560	 0.0	 0.0	 5.0	 0.0	 1.08066	 34.4	 0	 0.0	 0.0	 0.0	 0.0	 0.0	 0.0	 0.0	 0.0	 0.0	 0.0	 0.0	 0.0	 0.0;
	573	 1.0	 4.0	 4.0	 0.0	 1.1045	 8.9	 1	 1.0	 1.0	 0.0	 0.0	 0.0	 0.0	 0.0	 0.0	 0.0	 0.0	 0.0	 0.0	 0.0;
	626	 78.0	 0.0	 30.0	 0.0	 1.09418	 97.7	 1	 78.0	 78.0	 0.0	 0.0	 0.0	 0.0	 0.0	 0.0	 0.0	 0.0	 0.0	 0.0	 0.0;
	626	 30.0	 0.0	 30.0	 0.0	 1.09418	 46.8	 1	 30.0	 30.0	 0.0	 0.0	 0.0	 0.0	 0.0	 0.0	 0.0	 0.0	 0.0	 0.0	 0.0;
	664	 130.0	 59.662	 145.0	 -34.0	 1.10118	 267.7	 1	 225.0	 130.0	 0.0	 0.0	 0.0	 0.0	 0.0	 0.0	 0.0	 0.0	 0.0	 0.0	 0.0;
	665	 0.0	 0.0	 145.0	 -34.0	 1.10071	 267.7	 0	 225.0	 130.0	 0.0	 0.0	 0.0	 0.0	 0.0	 0.0	 0.0	 0.0	 0.0	 0.0	 0.0;
	685	 150.0	 0.0	 30.0	 0.0	 1.10073	 182.5	 1	 150.0	 150.0	 0.0	 0.0	 0.0	 0.0	 0.0	 0.0	 0.0	 0.0	 0.0	 0.0	 0.0;
	685	 50.0	 0.0	 30.0	 0.0	 1.10073	 77.5	 1	 50.0	 50.0	 0.0	 0.0	 0.0	 0.0	 0.0	 0.0	 0.0	 0.0	 0.0	 0.0	 0.0;
	691	 2.43	 0.0	 1.8	 0.0	 1.09385	 3.1	 1	 2.43	 2.43	 0.0	 0.0	 0.0	 0.0	 0.0	 0.0	 0.0	 0.0	 0.0	 0.0	 0.0;
	716	 1.47	 0.0	 1.3	 0.0	 1.07456	 10.1	 1	 1.47	 1.47	 0.0	 0.0	 0.0	 0.0	 0.0	 0.0	 0.0	 0.0	 0.0	 0.0	 0.0;
	740	 129.0	 -16.0	 130.0	 -16.0	 1.08572	 259.9	 1	 225.0	 129.0	 0.0	 0.0	 0.0	 0.0	 0.0	 0.0	 0.0	 0.0	 0.0	 0.0	 0.0;
	763	 86.0	 0.0	 30.0	 0.0	 1.08251	 105.4	 1	 86.0	 86.0	 0.0	 0.0	 0.0	 0.0	 0.0	 0.0	 0.0	 0.0	 0.0	 0.0	 0.0;
	792	 1.0	 0.563	 1.0	 0.0	 1.06006	 8.4	 1	 1.0	 1.0	 0.0	 0.0	 0.0	 0.0	 0.0	 0.0	 0.0	 0.0	 0.0	 0.0	 0.0;
	796	 68.1	 1.997	 23.0	 0.0	 1.06986	 71.9	 1	 68.1	 5.0	 0.0	 0.0	 0.0	 0.0	 0.0	 0.0	 0.0	 0.0	 0.0	 0.0	 0.0;
	796	 0.0	 0.0	 23.0	 0.0	 1.06986	 71.9	 0	 68.1	 5.0	 0.0	 0.0	 0.0	 0.0	 0.0	 0.0	 0.0	 0.0	 0.0	 0.0	 0.0;
	796	 0.0	 0.0	 11.0	 0.0	 1.06986	 32.9	 0	 31.0	 16.0	 0.0	 0.0	 0.0	 0.0	 0.0	 0.0	 0.0	 0.0	 0.0	 0.0	 0.0;
	796	 0.0	 0.0	 10.0	 0.0	 1.06986	 32.6	 0	 31.0	 16.0	 0.0	 0.0	 0.0	 0.0	 0.0	 0.0	 0.0	 0.0	 0.0	 0.0	 0.0;
	807	 0.0	 0.0	 10.0	 0.0	 1.08342	 125.4	 0	 125.0	 84.0	 0.0	 0.0	 0.0	 0.0	 0.0	 0.0	 0.0	 0.0	 0.0	 0.0	 0.0;
	808	 92.0	 0.0	 10.0	 0.0	 1.08981	 125.4	 1	 125.0	 92.0	 0.0	 0.0	 0.0	 0.0	 0.0	 0.0	 0.0	 0.0	 0.0	 0.0	 0.0;
	845	 15.0	 0.0	 8.1	 0.0	 1.07108	 33.0	 1	 15.0	 15.0	 0.0	 0.0	 0.0	 0.0	 0.0	 0.0	 0.0	 0.0	 0.0	 0.0	 0.0;
	845	 15.0	 0.0	 8.1	 0.0	 1.07108	 33.0	 1	 15.0	 15.0	 0.0	 0.0	 0.0	 0.0	 0.0	 0.0	 0.0	 0.0	 0.0	 0.0	 0.0;
	845	 0.0	 0.0	 0.0	 0.0	 1.07108	 19.0	 0	 0.0	 0.0	 0.0	 0.0	 0.0	 0.0	 0.0	 0.0	 0.0	 0.0	 0.0	 0.0	 0.0;
	845	 0.0	 0.0	 0.0	 0.0	 1.07108	 19.0	 0	 0.0	 0.0	 0.0	 0.0	 0.0	 0.0	 0.0	 0.0	 0.0	 0.0	 0.0	 0.0	 0.0;
	877	 35.0	 12.928	 41.2	 0.0	 1.09011	 87.7	 1	 35.0	 35.0	 0.0	 0.0	 0.0	 0.0	 0.0	 0.0	 0.0	 0.0	 0.0	 0.0	 0.0;
	900	 0.0	 0.0	 45.0	 -10.0	 1.08309	 65.8	 0	 0.0	 0.0	 0.0	 0.0	 0.0	 0.0	 0.0	 0.0	 0.0	 0.0	 0.0	 0.0	 0.0;
	900	 50.0	 20.483	 45.0	 -10.0	 1.08309	 71.1	 1	 50.0	 50.0	 0.0	 0.0	 0.0	 0.0	 0.0	 0.0	 0.0	 0.0	 0.0	 0.0	 0.0;
	900	 0.0	 0.0	 45.0	 -10.0	 1.08309	 71.1	 0	 0.0	 0.0	 0.0	 0.0	 0.0	 0.0	 0.0	 0.0	 0.0	 0.0	 0.0	 0.0	 0.0;
	975	 0.0	 0.0	 110.0	 -40.0	 1.08844	 162.2	 0	 0.0	 0.0	 0.0	 0.0	 0.0	 0.0	 0.0	 0.0	 0.0	 0.0	 0.0	 0.0	 0.0;
	976	 100.0	 33.722	 110.0	 -40.0	 1.09807	 162.2	 1	 100.0	 100.0	 0.0	 0.0	 0.0	 0.0	 0.0	 0.0	 0.0	 0.0	 0.0	 0.0	 0.0;
	980	 0.0	 0.0	 0.0	 0.0	 1.1056	 16.8	 0	 0.0	 0.0	 0.0	 0.0	 0.0	 0.0	 0.0	 0.0	 0.0	 0.0	 0.0	 0.0	 0.0;
	1001	 386.0	 20.078	 240.0	 -32.0	 1.10297	 454.5	 1	 386.0	 220.0	 0.0	 0.0	 0.0	 0.0	 0.0	 0.0	 0.0	 0.0	 0.0	 0.0	 0.0;
	1002	 370.0	 52.8	 227.0	 -30.0	 1.10123	 434.1	 1	 370.0	 220.0	 0.0	 0.0	 0.0	 0.0	 0.0	 0.0	 0.0	 0.0	 0.0	 0.0	 0.0;
	1006	 6.0	 1.447	 1.447	 0.0	 1.10306	 7.1	 1	 6.0	 6.0	 0.0	 0.0	 0.0	 0.0	 0.0	 0.0	 0.0	 0.0	 0.0	 0.0	 0.0;
	1005	 4.0	 0.447	 0.447	 0.0	 1.10308	 4.0	 1	 4.0	 4.0	 0.0	 0.0	 0.0	 0.0	 0.0	 0.0	 0.0	 0.0	 0.0	 0.0	 0.0;
	1006	 4.0	 0.447	 0.447	 0.0	 1.10306	 5.0	 1	 4.0	 4.0	 0.0	 0.0	 0.0	 0.0	 0.0	 0.0	 0.0	 0.0	 0.0	 0.0	 0.0;
	1006	 0.0	 0.0	 0.0	 0.0	 1.10306	 6.0	 0	 0.0	 0.0	 0.0	 0.0	 0.0	 0.0	 0.0	 0.0	 0.0	 0.0	 0.0	 0.0	 0.0;
	1007	 0.0	 0.0	 110.0	 -40.0	 1.09452	 174.1	 0	 0.0	 0.0	 0.0	 0.0	 0.0	 0.0	 0.0	 0.0	 0.0	 0.0	 0.0	 0.0	 0.0;
	1013	 15.0	 4.8	 4.8	 0.0	 1.09842	 20.6	 1	 15.0	 15.0	 0.0	 0.0	 0.0	 0.0	 0.0	 0.0	 0.0	 0.0	 0.0	 0.0	 0.0;
	1013	 0.0	 0.0	 0.0	 0.0	 1.09842	 12.8	 0	 0.0	 0.0	 0.0	 0.0	 0.0	 0.0	 0.0	 0.0	 0.0	 0.0	 0.0	 0.0	 0.0;
	1013	 0.0	 0.0	 0.0	 0.0	 1.09842	 12.5	 0	 0.0	 0.0	 0.0	 0.0	 0.0	 0.0	 0.0	 0.0	 0.0	 0.0	 0.0	 0.0	 0.0;
	1015	 0.0	 0.0	 0.0	 0.0	 1.09397	 20.0	 0	 0.0	 0.0	 0.0	 0.0	 0.0	 0.0	 0.0	 0.0	 0.0	 0.0	 0.0	 0.0	 0.0;
	1015	 0.0	 0.0	 0.0	 0.0	 1.09397	 19.0	 0	 0.0	 0.0	 0.0	 0.0	 0.0	 0.0	 0.0	 0.0	 0.0	 0.0	 0.0	 0.0	 0.0;
	1024	 12.0	 18.0	 18.0	 9.0	 1.07684	 30.0	 1	 12.0	 12.0	 0.0	 0.0	 0.0	 0.0	 0.0	 0.0	 0.0	 0.0	 0.0	 0.0	 0.0;
	1025	 0.0	 0.0	 18.0	 9.0	 1.07687	 30.0	 0	 0.0	 0.0	 0.0	 0.0	 0.0	 0.0	 0.0	 0.0	 0.0	 0.0	 0.0	 0.0	 0.0;
	1026	 0.0	 0.0	 14.0	 10.5	 1.07684	 32.2	 0	 0.0	 0.0	 0.0	 0.0	 0.0	 0.0	 0.0	 0.0	 0.0	 0.0	 0.0	 0.0	 0.0;
	1113	 0.0	 0.0	 37.5	 16.8	 1.09507	 62.5	 0	 0.0	 0.0	 0.0	 0.0	 0.0	 0.0	 0.0	 0.0	 0.0	 0.0	 0.0	 0.0	 0.0;
	1114	 0.0	 0.0	 37.5	 7.5	 1.08643	 62.5	 0	 0.0	 0.0	 0.0	 0.0	 0.0	 0.0	 0.0	 0.0	 0.0	 0.0	 0.0	 0.0	 0.0;
	1113	 50.0	 37.5	 37.5	 7.5	 1.09507	 62.5	 1	 50.0	 50.0	 0.0	 0.0	 0.0	 0.0	 0.0	 0.0	 0.0	 0.0	 0.0	 0.0	 0.0;
	1115	 0.0	 0.0	 37.5	 16.8	 1.09802	 62.5	 0	 0.0	 0.0	 0.0	 0.0	 0.0	 0.0	 0.0	 0.0	 0.0	 0.0	 0.0	 0.0	 0.0;
	1152	 17.0	 5.251	 5.251	 0.0	 1.07791	 30.5	 1	 17.0	 17.0	 0.0	 0.0	 0.0	 0.0	 0.0	 0.0	 0.0	 0.0	 0.0	 0.0	 0.0;
	1152	 0.0	 0.0	 0.0	 0.0	 1.07791	 6.0	 0	 0.0	 0.0	 0.0	 0.0	 0.0	 0.0	 0.0	 0.0	 0.0	 0.0	 0.0	 0.0	 0.0;
	1153	 17.0	 5.251	 5.251	 0.0	 1.07801	 30.5	 1	 17.0	 17.0	 0.0	 0.0	 0.0	 0.0	 0.0	 0.0	 0.0	 0.0	 0.0	 0.0	 0.0;
	1153	 0.0	 0.0	 0.0	 0.0	 1.07801	 25.0	 0	 0.0	 0.0	 0.0	 0.0	 0.0	 0.0	 0.0	 0.0	 0.0	 0.0	 0.0	 0.0	 0.0;
	1154	 16.0	 5.25	 5.25	 0.0	 1.08091	 30.5	 1	 16.0	 16.0	 0.0	 0.0	 0.0	 0.0	 0.0	 0.0	 0.0	 0.0	 0.0	 0.0	 0.0;
	1154	 0.0	 0.0	 0.0	 0.0	 1.08091	 6.0	 0	 0.0	 0.0	 0.0	 0.0	 0.0	 0.0	 0.0	 0.0	 0.0	 0.0	 0.0	 0.0	 0.0;
	1179	 70.0	 37.582	 52.5	 0.0	 1.08956	 87.5	 1	 70.0	 70.0	 0.0	 0.0	 0.0	 0.0	 0.0	 0.0	 0.0	 0.0	 0.0	 0.0	 0.0;
	1180	 0.0	 0.0	 52.5	 0.0	 1.08861	 87.5	 0	 0.0	 0.0	 0.0	 0.0	 0.0	 0.0	 0.0	 0.0	 0.0	 0.0	 0.0	 0.0	 0.0;
	1180	 0.0	 0.0	 42.0	 16.8	 1.08861	 65.3	 0	 0.0	 0.0	 0.0	 0.0	 0.0	 0.0	 0.0	 0.0	 0.0	 0.0	 0.0	 0.0	 0.0;
	1188	 50.0	 0.0	 0.0	 0.0	 1.08583	 50.0	 1	 50.0	 50.0	 0.0	 0.0	 0.0	 0.0	 0.0	 0.0	 0.0	 0.0	 0.0	 0.0	 0.0;
	1246	 10.0	 2.0	 2.0	 0.0	 1.08906	 16.7	 1	 10.0	 10.0	 0.0	 0.0	 0.0	 0.0	 0.0	 0.0	 0.0	 0.0	 0.0	 0.0	 0.0;
	1246	 0.0	 0.0	 0.0	 0.0	 1.08906	 24.0	 0	 0.0	 0.0	 0.0	 0.0	 0.0	 0.0	 0.0	 0.0	 0.0	 0.0	 0.0	 0.0	 0.0;
	1247	 0.0	 0.0	 0.0	 0.0	 1.07955	 14.6	 0	 0.0	 0.0	 0.0	 0.0	 0.0	 0.0	 0.0	 0.0	 0.0	 0.0	 0.0	 0.0	 0.0;
	1247	 0.0	 0.0	 0.0	 0.0	 1.07955	 14.6	 0	 0.0	 0.0	 0.0	 0.0	 0.0	 0.0	 0.0	 0.0	 0.0	 0.0	 0.0	 0.0	 0.0;
...
];

%% generator cost data
%	2	startup	shutdown	n	c(n-1)	...	c0
mpc.gencost = [
	2	 0.0	 0.0	 3	   0.000000	 112.780000	   0.000000;
	2	 0.0	 0.0	 3	   0.000000	 112.780000	   0.000000;
	2	 0.0	 0.0	 3	   0.000000	  76.100000	   0.000000;
	2	 0.0	 0.0	 3	   0.000000	  76.100000	   0.000000;
	2	 0.0	 0.0	 3	   0.000000	  76.100000	   0.000000;
	2	 0.0	 0.0	 3	   0.000000	  76.100000	   0.000000;
	2	 0.0	 0.0	 3	   0.000000	  76.100000	   0.000000;
	2	 0.0	 0.0	 3	   0.000000	  76.100000	   0.000000;
	2	 0.0	 0.0	 3	   0.000000	  76.100000	   0.000000;
	2	 0.0	 0.0	 3	   0.000000	  76.100000	   0.000000;
	2	 0.0	 0.0	 3	   0.000000	  76.100000	   0.000000;
	2	 0.0	 0.0	 3	   0.000000	  76.100000	   0.000000;
	2	 0.0	 0.0	 3	   0.000000	  76.100000	   0.000000;
	2	 0.0	 0.0	 3	   0.000000	 102.050000	   0.000000;
	2	 0.0	 0.0	 3	   0.000000	 102.050000	   0.000000;
	2	 0.0	 0.0	 3	   0.000000	 102.050000	   0.000000;
	2	 0.0	 0.0	 3	   0.000000	 102.050000	   0.000000;
	2	 0.0	 0.0	 3	   0.000000	 102.050000	   0.000000;
	2	 0.0	 0.0	 3	   0.000000	 102.050000	   0.000000;
	2	 0.0	 0.0	 3	   0.000000	 102.050000	   0.000000;
	2	 0.0	 0.0	 3	   0.000000	 102.050000	   0.000000;
	2	 0.0	 0.0	 3	   0.000000	 105.350000	   0.000000;
	2	 0.0	 0.0	 3	   0.000000	 105.350000	   0.000000;
	2	 0.0	 0.0	 3	   0.000000	 105.350000	   0.000000;
	2	 0.0	 0.0	 3	   0.000000	 105.350000	   0.000000;
	2	 0.0	 0.0	 3	   0.000000	 105.350000	   0.000000;
	2	 0.0	 0.0	 3	   0.000000	 105.350000	   0.000000;
	2	 0.0	 0.0	 3	   0.000000	 105.350000	   0.000000;
	2	 0.0	 0.0	 3	   0.000000	   0.000000	   0.000000;
	2	 0.0	 0.0	 3	   0.000000	  95.310000	   0.000000;
	2	 0.0	 0.0	 3	   0.000000	  95.310000	   0.000000;
	2	 0.0	 0.0	 3	   0.000000	  95.310000	   0.000000;
	2	 0.0	 0.0	 3	   0.000000	  95.310000	   0.000000;
	2	 0.0	 0.0	 3	   0.000000	  95.310000	   0.000000;
	2	 0.0	 0.0	 3	   0.000000	  90.030000	   0.000000;
	2	 0.0	 0.0	 3	   0.000000	  90.030000	   0.000000;
	2	 0.0	 0.0	 3	   0.000000	   0.000000	   0.000000;
	2	 0.0	 0.0	 3	   0.000000	   0.000000	   0.000000;
	2	 0.0	 0.0	 3	   0.000000	  92.780000	   0.000000;
	2	 0.0	 0.0	 3	   0.000000	  92.780000	   0.000000;
	2	 0.0	 0.0	 3	   0.000000	  94.090000	   0.000000;
	2	 0.0	 0.0	 3	   0.000000	  94.090000	   0.000000;
	2	 0.0	 0.0	 3	   0.000000	  97.120000	   0.000000;
	2	 0.0	 0.0	 3	   0.000000	  97.120000	   0.000000;
	2	 0.0	 0.0	 3	   0.000000	  99.520000	   0.000000;
	2	 0.0	 0.0	 3	   0.000000	  91.160000	   0.000000;
	2	 0.0	 0.0	 3	   0.000000	  91.160000	   0.000000;
	2	 0.0	 0.0	 3	   0.000000	  91.160000	   0.000000;
	2	 0.0	 0.0	 3	   0.000000	  91.160000	   0.000000;
	2	 0.0	 0.0	 3	   0.000000	  91.160000	   0.000000;
	2	 0.0	 0.0	 3	   0.000000	   0.010000	   0.000000;
	2	 0.0	 0.0	 3	   0.000000	   0.010000	   0.000000;
	2	 0.0	 0.0	 3	   0.000000	   0.010000	   0.000000;
	2	 0.0	 0.0	 3	   0.000000	   0.010000	   0.000000;
	2	 0.0	 0.0	 3	   0.000000	  92.430000	   0.000000;
	2	 0.0	 0.0	 3	   0.000000	  92.430000	   0.000000;
	2	 0.0	 0.0	 3	   0.000000	  92.430000	   0.000000;
	2	 0.0	 0.0	 3	   0.000000	  96.420000	   0.000000;
	2	 0.0	 0.0	 3	   0.000000	  96.420000	   0.000000;
	2	 0.0	 0.0	 3	   0.000000	  96.420000	   0.000000;
	2	 0.0	 0.0	 3	   0.000000	 116.010000	   0.000000;
	2	 0.0	 0.0	 3	   0.000000	 116.010000	   0.000000;
	2	 0.0	 0.0	 3	   0.000000	 116.010000	   0.000000;
	2	 0.0	 0.0	 3	   0.000000	 116.010000	   0.000000;
	2	 0.0	 0.0	 3	   0.000000	 116.010000	   0.000000;
	2	 0.0	 0.0	 3	   0.000000	 116.010000	   0.000000;
	2	 0.0	 0.0	 3	   0.000000	 116.010000	   0.000000;
	2	 0.0	 0.0	 3	   0.000000	  98.840000	   0.000000;
	2	 0.0	 0.0	 3	   0.000000	  98.840000	   0.000000;
	2	 0.0	 0.0	 3	   0.000000	  98.840000	   0.000000;
	2	 0.0	 0.0	 3	   0.000000	  98.840000	   0.000000;
	2	 0.0	 0.0	 3	   0.000000	  98.840000	   0.000000;
	2	 0.0	 0.0	 3	   0.000000	  98.840000	   0.000000;
	2	 0.0	 0.0	 3	   0.000000	  98.840000	   0.000000;
	2	 0.0	 0.0	 3	   0.000000	  98.840000	   0.000000;
	2	 0.0	 0.0	 3	   0.000000	  98.840000	   0.000000;
	2	 0.0	 0.0	 3	   0.000000	  89.220000	   0.000000;
	2	 0.0	 0.0	 3	   0.000000	  89.220000	   0.000000;
	2	 0.0	 0.0	 3	   0.000000	  89.220000	   0.000000;
	2	 0.0	 0.0	 3	   0.000000	  89.220000	   0.000000;
	2	 0.0	 0.0	 3	   0.000000	   0.000000	   0.000000;
	2	 0.0	 0.0	 3	   0.000000	   0.010000	   0.000000;
	2	 0.0	 0.0	 3	   0.000000	   0.010000	   0.000000;
	2	 0.0	 0.0	 3	   0.000000	   0.010000	   0.000000;
	2	 0.0	 0.0	 3	   0.000000	   0.010000	   0.000000;
	2	 0.0	 0.0	 3	   0.000000	   0.000000	   0.000000;
	2	 0.0	 0.0	 3	   0.000000	   0.000000	   0.000000;
	2	 0.0	 0.0	 3	   0.000000	   0.000000	   0.000000;
	2	 0.0	 0.0	 3	   0.000000	   0.000000	   0.000000;
	2	 0.0	 0.0	 3	   0.000000	   0.000000	   0.000000;
	2	 0.0	 0.0	 3	   0.000000	   0.000000	   0.000000;
	2	 0.0	 0.0	 3	   0.000000	   0.000000	   0.000000;
	2	 0.0	 0.0	 3	   0.000000	  76.100000	   0.000000;
	2	 0.0	 0.0	 3	   0.000000	   0.000000	   0.000000;
	2	 0.0	 0.0	 3	   0.000000	   0.000000	   0.000000;
	2	 0.0	 0.0	 3	   0.000000	   0.000000	   0.000000;
	2	 0.0	 0.0	 3	   0.000000	   0.000000	   0.000000;
	2	 0.0	 0.0	 3	   0.000000	   0.000000	   0.000000;
	2	 0.0	 0.0	 3	   0.000000	   0.000000	   0.000000;
	2	 0.0	 0.0	 3	   0.000000	   0.000000	   0.000000;
	2	 0.0	 0.0	 3	   0.000000	   0.000000	   0.000000;
	2	 0.0	 0.0	 3	   0.000000	   0.000000	   0.000000;
	2	 0.0	 0.0	 3	   0.000000	   0.000000	   0.000000;
	2	 0.0	 0.0	 3	   0.000000	   0.000000	   0.000000;
	2	 0.0	 0.0	 3	   0.000000	   0.000000	   0.000000;
	2	 0.0	 0.0	 3	   0.000000	   0.000000	   0.000000;
	2	 0.0	 0.0	 3	   0.000000	   0.000000	   0.000000;
	2	 0.0	 0.0	 3	   0.000000	   0.000000	   0.000000;
	2	 0.0	 0.0	 3	   0.000000	   0.000000	   0.000000;
	2	 0.0	 0.0	 3	   0.000000	   0.000000	   0.000000;
	2	 0.0	 0.0	 3	   0.000000	   0.000000	   0.000000;
	2	 0.0	 0.0	 3	   0.000000	   0.000000	   0.000000;
	2	 0.0	 0.0	 3	   0.000000	 112.780000	   0.000000;
	2	 0.0	 0.0	 3	   0.000000	 112.780000	   0.000000;
	2	 0.0	 0.0	 3	   0.000000	 112.780000	   0.000000;
	2	 0.0	 0.0	 3	   0.000000	   0.000000	   0.000000;
	2	 0.0	 0.0	 3	   0.000000	   0.000000	   0.000000;
	2	 0.0	 0.0	 3	   0.000000	   0.000000	   0.000000;
	2	 0.0	 0.0	 3	   0.000000	   0.000000	   0.000000;
	2	 0.0	 0.0	 3	   0.000000	   0.000000	   0.000000;
	2	 0.0	 0.0	 3	   0.000000	   0.000000	   0.000000;
	2	 0.0	 0.0	 3	   0.000000	   0.000000	   0.000000;
	2	 0.0	 0.0	 3	   0.000000	   0.000000	   0.000000;
	2	 0.0	 0.0	 3	   0.000000	   0.000000	   0.000000;
	2	 0.0	 0.0	 3	   0.000000	   0.000000	   0.000000;
	2	 0.0	 0.0	 3	   0.000000	   0.000000	   0.000000;
	2	 0.0	 0.0	 3	   0.000000	   0.000000	   0.000000;
	2	 0.0	 0.0	 3	   0.000000	   0.000000	   0.000000;
	2	 0.0	 0.0	 3	   0.000000	   0.000000	   0.000000;
	2	 0.0	 0.0	 3	   0.000000	   0.000000	   0.000000;
	2	 0.0	 0.0	 3	   0.000000	   0.000000	   0.000000;
	2	 0.0	 0.0	 3	   0.000000	   0.000000	   0.000000;
	2	 0.0	 0.0	 3	   0.000000	   0.000000	   0.000000;
	2	 0.0	 0.0	 3	   0.000000	   0.000000	   0.000000;
	2	 0.0	 0.0	 3	   0.000000	   0.000000	   0.000000;
	2	 0.0	 0.0	 3	   0.000000	   0.000000	   0.000000;
	2	 0.0	 0.0	 3	   0.000000	   0.000000	   0.000000;
	2	 0.0	 0.0	 3	   0.000000	   0.000000	   0.000000;
	2	 0.0	 0.0	 3	   0.000000	   0.000000	   0.000000;
	2	 0.0	 0.0	 3	   0.000000	   0.000000	   0.000000;
	2	 0.0	 0.0	 3	   0.000000	   0.000000	   0.000000;
	2	 0.0	 0.0	 3	   0.000000	 102.050000	   0.000000;
	2	 0.0	 0.0	 3	   0.000000	 102.050000	   0.000000;
	2	 0.0	 0.0	 3	   0.000000	   0.000000	   0.000000;
	2	 0.0	 0.0	 3	   0.000000	   0.000000	   0.000000;
	2	 0.0	 0.0	 3	   0.000000	   0.000000	   0.000000;
	2	 0.0	 0.0	 3	   0.000000	   0.000000	   0.000000;
	2	 0.0	 0.0	 3	   0.000000	 105.350000	   0.000000;
	2	 0.0	 0.0	 3	   0.000000	   0.000000	   0.000000;
	2	 0.0	 0.0	 3	   0.000000	   0.000000	   0.000000;
	2	 0.0	 0.0	 3	   0.000000	   0.010000	   0.000000;
	2	 0.0	 0.0	 3	   0.000000	   0.010000	   0.000000;
	2	 0.0	 0.0	 3	   0.000000	   0.010000	   0.000000;
	2	 0.0	 0.0	 3	   0.000000	   0.010000	   0.000000;
	2	 0.0	 0.0	 3	   0.000000	 111.630000	   0.000000;
	2	 0.0	 0.0	 3	   0.000000	 111.630000	   0.000000;
	2	 0.0	 0.0	 3	   0.000000	   0.000000	   0.000000;
	2	 0.0	 0.0	 3	   0.000000	   0.000000	   0.000000;
	2	 0.0	 0.0	 3	   0.000000	   0.000000	   0.000000;
	2	 0.0	 0.0	 3	   0.000000	   0.000000	   0.000000;
	2	 0.0	 0.0	 3	   0.000000	   0.000000	   0.000000;
	2	 0.0	 0.0	 3	   0.000000	   0.000000	   0.000000;
	2	 0.0	 0.0	 3	   0.000000	   0.000000	   0.000000;
	2	 0.0	 0.0	 3	   0.000000	   0.000000	   0.000000;
	2	 0.0	 0.0	 3	   0.000000	   0.000000	   0.000000;
	2	 0.0	 0.0	 3	   0.000000	   0.000000	   0.000000;
	2	 0.0	 0.0	 3	   0.000000	   0.000000	   0.000000;
	2	 0.0	 0.0	 3	   0.000000	  90.030000	   0.000000;
	2	 0.0	 0.0	 3	   0.000000	  90.030000	   0.000000;
	2	 0.0	 0.0	 3	   0.000000	   0.000000	   0.000000;
	2	 0.0	 0.0	 3	   0.000000	   0.000000	   0.000000;
	2	 0.0	 0.0	 3	   0.000000	   0.000000	   0.000000;
	2	 0.0	 0.0	 3	   0.000000	   0.000000	   0.000000;
	2	 0.0	 0.0	 3	   0.000000	   0.000000	   0.000000;
	2	 0.0	 0.0	 3	   0.000000	   0.000000	   0.000000;
	2	 0.0	 0.0	 3	   0.000000	   0.000000	   0.000000;
	2	 0.0	 0.0	 3	   0.000000	   0.000000	   0.000000;
	2	 0.0	 0.0	 3	   0.000000	   0.000000	   0.000000;
	2	 0.0	 0.0	 3	   0.000000	   0.000000	   0.000000;
	2	 0.0	 0.0	 3	   0.000000	   0.000000	   0.000000;
	2	 0.0	 0.0	 3	   0.000000	   0.000000	   0.000000;
	2	 0.0	 0.0	 3	   0.000000	   0.000000	   0.000000;
	2	 0.0	 0.0	 3	   0.000000	   0.000000	   0.000000;
	2	 0.0	 0.0	 3	   0.000000	   0.000000	   0.000000;
	2	 0.0	 0.0	 3	   0.000000	   0.000000	   0.000000;
	2	 0.0	 0.0	 3	   0.000000	   0.000000	   0.000000;
	2	 0.0	 0.0	 3	   0.000000	   0.000000	   0.000000;
	2	 0.0	 0.0	 3	   0.000000	   0.000000	   0.000000;
	2	 0.0	 0.0	 3	   0.000000	   0.000000	   0.000000;
	2	 0.0	 0.0	 3	   0.000000	   0.000000	   0.000000;
	2	 0.0	 0.0	 3	   0.000000	   0.000000	   0.000000;
	2	 0.0	 0.0	 3	   0.000000	   0.000000	   0.000000;
	2	 0.0	 0.0	 3	   0.000000	   0.000000	   0.000000;
	2	 0.0	 0.0	 3	   0.000000	   0.000000	   0.000000;
	2	 0.0	 0.0	 3	   0.000000	   0.000000	   0.000000;
	2	 0.0	 0.0	 3	   0.000000	   0.000000	   0.000000;
	2	 0.0	 0.0	 3	   0.000000	   0.000000	   0.000000;
	2	 0.0	 0.0	 3	   0.000000	   0.000000	   0.000000;
	2	 0.0	 0.0	 3	   0.000000	   0.000000	   0.000000;
	2	 0.0	 0.0	 3	   0.000000	   0.000000	   0.000000;
...
];

%% branch data
%	fbus	tbus	r	x	b	rateA	rateB	rateC	ratio	angle	status	angmin	angmax
mpc.branch = [
	7	 8	 0.00064	 0.0305	 0.0	 400.0	 400.0	 400.0	 1.0435	 -0.6	 1	 -30.0	 30.0;
	26	 28	 0.00036	 0.02519	 0.0	 500.0	 500.0	 500.0	 1.067	 0.0	 1	 -30.0	 30.0;
	27	 29	 0.00036	 0.02519	 0.0	 500.0	 500.0	 500.0	 1.0671	 0.0	 1	 -30.0	 30.0;
	39	 41	 0.00034	 0.02097	 0.0	 500.0	 500.0	 500.0	 1.1102	 0.0	 1	 -30.0	 30.0;
	42	 45	 0.00034	 0.02097	 0.0	 500.0	 500.0	 500.0	 1.0917	 0.0	 1	 -30.0	 30.0;
	54	 56	 0.00081	 0.03	 0.0	 400.0	 400.0	 400.0	 1.0466	 0.0	 1	 -30.0	 30.0;
	89	 91	 0.00075	 0.02444	 -0.00832	 330.0	 330.0	 330.0	 1.0553	 0.0	 1	 -30.0	 30.0;
	90	 92	 0.00075	 0.02469	 -0.008	 330.0	 330.0	 330.0	 1.0552	 0.0	 1	 -30.0	 30.0;
	124	 127	 0.0005	 0.02875	 -0.016	 400.0	 400.0	 400.0	 1.087	 0.0	 1	 -30.0	 30.0;
	148	 149	 0.00064	 0.0305	 0.0	 400.0	 400.0	 400.0	 1.0636	 0.0	 1	 -30.0	 30.0;
	154	 156	 0.000232	 0.023	 0.0	 500.0	 500.0	 500.0	 1.0953	 0.0	 1	 -30.0	 30.0;
	155	 157	 0.000232	 0.023	 0.0	 500.0	 500.0	 500.0	 1.0953	 0.0	 1	 -30.0	 30.0;
	168	 170	 0.00035	 0.02375	 0.0	 500.0	 500.0	 500.0	 1.0767	 0.0	 1	 -30.0	 30.0;
	182	 183	 0.00059	 0.03093	 0.0	 400.0	 400.0	 400.0	 1.0504	 0.0	 1	 -30.0	 30.0;
	189	 191	 0.0004	 0.03	 0.0	 500.0	 500.0	 500.0	 1.0695	 3.6	 1	 -30.0	 30.0;
	2726	 156	 0.00031	 0.00338	 0.0992	 1386.0	 1386.0	 1386.0	 0.0	 0.0	 1	 -30.0	 30.0;
	2726	 157	 0.00031	 0.00338	 0.0992	 1386.0	 1386.0	 1386.0	 0.0	 0.0	 1	 -30.0	 30.0;
	2727	 67	 0.014341	 0.083531	 0.126034	 385.0	 385.0	 385.0	 0.0	 0.0	 1	 -30.0	 30.0;
	2725	 75	 0.01219	 0.070659	 0.117418	 412.0	 412.0	 412.0	 0.0	 0.0	 1	 -30.0	 30.0;
	2725	 104	 0.011781	 0.07087	 0.116838	 412.0	 412.0	 412.0	 0.0	 0.0	 1	 -30.0	 30.0;
	126	 2724	 0.001525	 0.016837	 0.50576	 1386.0	 1386.0	 1386.0	 0.0	 0.0	 1	 -30.0	 30.0;
	2728	 147	 0.001651	 0.015909	 0.046948	 316.0	 316.0	 316.0	 0.0	 0.0	 1	 -30.0	 30.0;
	2728	 148	 0.001651	 0.015909	 0.046948	 316.0	 316.0	 316.0	 0.0	 0.0	 1	 -30.0	 30.0;
	2729	 47	 0.00188	 0.02287	 0.6432	 831.0	 831.0	 831.0	 0.0	 0.0	 1	 -30.0	 30.0;
	2729	 48	 0.00188	 0.02287	 0.6432	 831.0	 831.0	 831.0	 0.0	 0.0	 1	 -30.0	 30.0;
	81	 2723	 0.002769	 0.031162	 0.89824	 1386.0	 1386.0	 1386.0	 0.0	 0.0	 1	 -30.0	 30.0;
	42	 23	 0.01345	 0.081141	 0.141134	 339.0	 339.0	 339.0	 0.0	 0.0	 1	 -30.0	 30.0;
	26	 89	 0.009091	 0.062401	 0.111417	 453.0	 453.0	 453.0	 0.0	 0.0	 1	 -30.0	 30.0;
	27	 90	 0.00868	 0.06405	 0.096994	 427.0	 427.0	 427.0	 0.0	 0.0	 1	 -30.0	 30.0;
	145	 30	 0.016961	 0.123659	 0.196988	 316.0	 316.0	 316.0	 0.0	 0.0	 1	 -30.0	 30.0;
	134	 33	 0.00512	 0.02618	 0.029621	 301.0	 301.0	 301.0	 0.0	 0.0	 1	 -30.0	 30.0;
	133	 20	 0.01068	 0.061961	 0.094961	 385.0	 385.0	 385.0	 0.0	 0.0	 1	 -30.0	 30.0;
	163	 21	 0.014651	 0.105891	 0.170852	 316.0	 316.0	 316.0	 0.0	 0.0	 1	 -30.0	 30.0;
	40	 108	 0.01488	 0.08161	 0.114805	 314.0	 314.0	 314.0	 0.0	 0.0	 1	 -30.0	 30.0;
	39	 90	 0.011159	 0.07231	 0.103673	 324.0	 324.0	 324.0	 0.0	 0.0	 1	 -30.0	 30.0;
	177	 82	 0.005517	 0.059484	 0.170775	 316.0	 316.0	 316.0	 0.0	 0.0	 1	 -30.0	 30.0;
	202	 164	 0.01176	 0.068289	 0.102802	 324.0	 324.0	 324.0	 0.0	 0.0	 1	 -30.0	 30.0;
	193	 164	 0.016818	 0.089091	 0.129935	 358.0	 358.0	 358.0	 0.0	 0.0	 1	 -30.0	 30.0;
	192	 163	 0.013843	 0.087025	 0.134842	 383.0	 383.0	 383.0	 0.0	 0.0	 1	 -30.0	 30.0;
	206	 166	 0.01676	 0.097169	 0.148685	 269.0	 269.0	 269.0	 0.0	 0.0	 1	 -30.0	 30.0;
	42	 10	 0.01269	 0.074979	 0.130196	 351.0	 351.0	 351.0	 0.0	 0.0	 1	 -30.0	 30.0;
	197	 18	 0.014091	 0.10413	 0.15972	 316.0	 316.0	 316.0	 0.0	 0.0	 1	 -30.0	 30.0;
	99	 54	 0.003719	 0.0438	 0.100962	 457.0	 457.0	 457.0	 0.0	 0.0	 1	 -30.0	 30.0;
	161	 81	 0.00194	 0.02056	 0.51584	 1178.0	 1178.0	 1178.0	 0.0	 0.0	 1	 -30.0	 30.0;
	44	 9	 0.0015	 0.01506	 0.4032	 1386.0	 1386.0	 1386.0	 0.0	 0.0	 1	 -30.0	 30.0;
	184	 149	 0.00294	 0.03463	 0.9216	 693.0	 693.0	 693.0	 0.0	 0.0	 1	 -30.0	 30.0;
	120	 56	 0.00169	 0.01994	 0.50624	 831.0	 831.0	 831.0	 0.0	 0.0	 1	 -30.0	 30.0;
	29	 92	 0.00137	 0.01625	 0.41184	 1386.0	 1386.0	 1386.0	 0.0	 0.0	 1	 -30.0	 30.0;
	28	 122	 0.00231	 0.02769	 0.70144	 1386.0	 1386.0	 1386.0	 0.0	 0.0	 1	 -30.0	 30.0;
	25	 191	 0.00207	 0.02474	 0.664	 1386.0	 1386.0	 1386.0	 0.0	 0.0	 1	 -30.0	 30.0;
	119	 63	 0.0015	 0.01788	 0.4512	 831.0	 831.0	 831.0	 0.0	 0.0	 1	 -30.0	 30.0;
	121	 63	 0.00469	 0.05544	 1.4048	 831.0	 831.0	 831.0	 0.0	 0.0	 1	 -30.0	 30.0;
	81	 31	 0.00331	 0.03425	 0.85888	 977.0	 977.0	 977.0	 0.0	 0.0	 1	 -30.0	 30.0;
	91	 28	 0.00219	 0.02369	 0.59584	 1178.0	 1178.0	 1178.0	 0.0	 0.0	 1	 -30.0	 30.0;
	12	 4	 0.01674	 0.09711	 0.144232	 427.0	 427.0	 427.0	 0.0	 0.0	 1	 -30.0	 30.0;
	30	 11	 0.0057	 0.0407	 0.06021	 316.0	 316.0	 316.0	 0.0	 0.0	 1	 -30.0	 30.0;
	24	 4	 0.004419	 0.032229	 0.049852	 383.0	 383.0	 383.0	 0.0	 0.0	 1	 -30.0	 30.0;
	17	 7	 0.014591	 0.11219	 0.165528	 383.0	 383.0	 383.0	 0.0	 0.0	 1	 -30.0	 30.0;
	21	 10	 0.01211	 0.087419	 0.140166	 316.0	 316.0	 316.0	 0.0	 0.0	 1	 -30.0	 30.0;
	26	 5	 0.009773	 0.050516	 0.088959	 377.0	 377.0	 377.0	 0.0	 0.0	 1	 -30.0	 30.0;
	17	 3	 0.01068	 0.07895	 0.245194	 274.0	 274.0	 274.0	 0.0	 0.0	 1	 -30.0	 30.0;
	26	 19	 0.0057	 0.039521	 0.075533	 440.0	 440.0	 440.0	 0.0	 0.0	 1	 -30.0	 30.0;
	27	 20	 0.0057	 0.039521	 0.075533	 440.0	 440.0	 440.0	 0.0	 0.0	 1	 -30.0	 30.0;
	13	 6	 0.00525	 0.03988	 0.061952	 316.0	 316.0	 316.0	 0.0	 0.0	 1	 -30.0	 30.0;
	13	 12	 2.1e-05	 0.000207	 0.0	 316.0	 316.0	 316.0	 0.0	 0.0	 1	 -30.0	 30.0;
	32	 13	 0.00093	 0.00651	 0.011132	 316.0	 316.0	 316.0	 0.0	 0.0	 1	 -30.0	 30.0;
	23	 11	 0.00205	 0.01326	 0.022429	 385.0	 385.0	 385.0	 0.0	 0.0	 1	 -30.0	 30.0;
	33	 5	 0.007831	 0.043	 0.04962	 301.0	 301.0	 301.0	 0.0	 0.0	 1	 -30.0	 30.0;
	19	 4	 0.00293	 0.01599	 0.024781	 324.0	 324.0	 324.0	 0.0	 0.0	 1	 -30.0	 30.0;
	26	 1	 0.00155	 0.01169	 0.018198	 633.0	 633.0	 633.0	 0.0	 0.0	 1	 -30.0	 30.0;
	27	 2	 0.00155	 0.01169	 0.018198	 633.0	 633.0	 633.0	 0.0	 0.0	 1	 -30.0	 30.0;
	27	 24	 0.003841	 0.028531	 0.045883	 392.0	 392.0	 392.0	 0.0	 0.0	 1	 -30.0	 30.0;
	25	 9	 0.00298	 0.03418	 0.93504	 831.0	 831.0	 831.0	 0.0	 0.0	 1	 -30.0	 30.0;
	28	 25	 0.00358	 0.04262	 1.0944	 1386.0	 1386.0	 1386.0	 0.0	 0.0	 1	 -30.0	 30.0;
	14	 29	 0.00336	 0.03977	 1.02163	 1316.0	 1316.0	 1316.0	 0.0	 0.0	 1	 -30.0	 30.0;
	8	 15	 0.00299	 0.03675	 0.9184	 1150.0	 1150.0	 1150.0	 0.0	 0.0	 1	 -30.0	 30.0;
	8	 14	 0.00112	 0.01329	 0.341248	 1150.0	 1150.0	 1150.0	 0.0	 0.0	 1	 -30.0	 30.0;
	31	 29	 0.00075	 0.009	 0.22848	 1150.0	 1150.0	 1150.0	 0.0	 0.0	 1	 -30.0	 30.0;
	62	 58	 0.010479	 0.060969	 0.092047	 269.0	 269.0	 269.0	 0.0	 0.0	 1	 -30.0	 30.0;
	60	 55	 0.00882	 0.065641	 0.100662	 274.0	 274.0	 274.0	 0.0	 0.0	 1	 -30.0	 30.0;
...